<edges>
	<!-- HORIZONTAL/-->
	<edge from="n1" to="n2" id="1to2" type="2L30"/>
	<edge from="n2" to="n3" id="2to3" type="2L30"/>
	<edge from="n3" to="n4" id="3to4" type="2L30"/>
	<edge from="n4" to="n5" id="4to5" type="2L30"/>
	<edge from="n5" to="n6" id="5to6" type="2L30"/>
	<edge from="n6" to="n7" id="6to7" type="1L30"/>
	<edge from="n7" to="n8" id="7to8" type="1L30"/>
	
	<edge to="n1" from="n2" id="2to1" type="2L30"/>
	<edge to="n2" from="n3" id="3to2" type="2L30"/>
	<edge to="n3" from="n4" id="4to3" type="2L30"/>
	<edge to="n4" from="n5" id="5to4" type="2L30"/>
	<edge to="n5" from="n6" id="6to5" type="2L30"/>
	<edge to="n6" from="n7" id="7to6" type="1L30"/>
	<edge to="n7" from="n8" id="8to7" type="1L30"/>

	<edge from="n9" to="n55" id="9to55" type="2L30"/>
	<edge from="n55" to="n10" id="55to10" type="3L30"/>
	<edge from="n10" to="n56" id="10to56" type="2L30"/>
	<edge from="n56" to="n57" id="56to57" type="2L30"/>
	<edge from="n57" to="n11" id="57to11" type="3L30"/>
	<edge from="n11" to="n58" id="11to58" type="2L30"/>
	<edge from="n58" to="n59" id="58to59" type="2L30"/>
	<edge from="n59" to="n12" id="59to12" type="3L30"/>
	<edge from="n12" to="n60" id="12to60" type="2L30"/>
	<edge from="n60" to="n61" id="60to61" type="2L30"/>
	<edge from="n61" to="n13" id="61to13" type="3L30"/>
	<edge from="n13" to="n62" id="13to62" type="2L30"/>
	<edge from="n62" to="n63" id="62to63" type="2L30"/>
	<edge from="n63" to="n14" id="63to14" type="3L30"/>
	<edge from="n14" to="n64" id="14to64" type="2L30"/>
	<edge from="n64" to="n65" id="64to65" type="2L30"/>
	<edge from="n65" to="n15" id="65to15" type="3L30"/>
	<edge from="n15" to="n66" id="15to66" type="2L30"/>
	<edge from="n66" to="n16" id="66to16" type="2L30"/>

	<edge to="n9" from="n55" id="55to9" type="2L30"/>
	<edge to="n55" from="n10" id="10to55" type="2L30"/>
	<edge to="n10" from="n56" id="56to10" type="3L30"/>
	<edge to="n56" from="n57" id="57to56" type="2L30"/>
	<edge to="n57" from="n11" id="11to57" type="2L30"/>
	<edge to="n11" from="n58" id="58to11" type="3L30"/>
	<edge to="n58" from="n59" id="59to58" type="2L30"/>
	<edge to="n59" from="n12" id="12to59" type="2L30"/>
	<edge to="n12" from="n60" id="60to12" type="3L30"/>
	<edge to="n60" from="n61" id="61to60" type="2L30"/>
	<edge to="n61" from="n13" id="13to61" type="2L30"/>
	<edge to="n13" from="n62" id="62to13" type="3L30"/>
	<edge to="n62" from="n63" id="63to62" type="2L30"/>
	<edge to="n63" from="n14" id="14to63" type="2L30"/>
	<edge to="n14" from="n64" id="64to14" type="3L30"/>
	<edge to="n64" from="n65" id="65to64" type="2L30"/>
	<edge to="n65" from="n15" id="15to65" type="2L30"/>
	<edge to="n15" from="n66" id="66to15" type="3L30"/>
	<edge to="n66" from="n16" id="16to66" type="2L30"/>

	<edge from="n17" to="n79" id="17to79" type="2L30"/>
	<edge from="n79" to="n18" id="79to18" type="3L30"/>
	<edge from="n18" to="n80" id="18to80" type="2L30"/>
	<edge from="n80" to="n81" id="80to81" type="2L30"/>
	<edge from="n81" to="n19" id="81to19" type="3L30"/>
	<edge from="n19" to="n82" id="19to82" type="2L30"/>
	<edge from="n82" to="n83" id="82to83" type="2L30"/>
	<edge from="n83" to="n20" id="83to20" type="3L30"/>
	<edge from="n20" to="n84" id="20to84" type="2L30"/>
	<edge from="n84" to="n85" id="84to85" type="2L30"/>
	<edge from="n85" to="n21" id="85to21" type="3L30"/>
	<edge from="n21" to="n86" id="21to86" type="2L30"/>
	<edge from="n86" to="n87" id="86to87" type="2L30"/>
	<edge from="n87" to="n22" id="87to22" type="3L30"/>
	<edge from="n22" to="n88" id="22to88" type="1L30"/>
	<edge from="n88" to="n89" id="88to89" type="1L30"/>
	<edge from="n89" to="n23" id="89to23" type="2L30"/>
	<edge from="n23" to="n90" id="23to90" type="1L30"/>
	<edge from="n90" to="n24" id="90to24" type="1L30"/>

	<edge to="n17" from="n79" id="79to17" type="2L30"/>
	<edge to="n79" from="n18" id="18to79" type="2L30"/>
	<edge to="n18" from="n80" id="80to18" type="3L30"/>
	<edge to="n80" from="n81" id="81to80" type="2L30"/>
	<edge to="n81" from="n19" id="19to81" type="2L30"/>
	<edge to="n19" from="n82" id="82to19" type="3L30"/>
	<edge to="n82" from="n83" id="83to82" type="2L30"/>
	<edge to="n83" from="n20" id="20to83" type="2L30"/>
	<edge to="n20" from="n84" id="84to20" type="3L30"/>
	<edge to="n84" from="n85" id="85to84" type="2L30"/>
	<edge to="n85" from="n21" id="21to85" type="2L30"/>
	<edge to="n21" from="n86" id="86to21" type="3L30"/>
	<edge to="n86" from="n87" id="87to86" type="2L30"/>
	<edge to="n87" from="n22" id="22to87" type="2L30"/>
	<edge to="n22" from="n88" id="88to22" type="3L30"/>
	<edge to="n88" from="n89" id="89to88" type="1L30"/>
	<edge to="n89" from="n23" id="23to89" type="1L30"/>
	<edge to="n23" from="n90" id="90to23" type="2L30"/>
	<edge to="n90" from="n24" id="24to90" type="1L30"/>
	


	<edge from="n25" to="n103" id="25to103" type="2L30"/>
	<edge from="n103" to="n26" id="103to26" type="3L30"/>
	<edge from="n26" to="n104" id="26to104" type="2L30"/>
	<edge from="n104" to="n105" id="104to105" type="2L30"/>
	<edge from="n105" to="n27" id="105to27" type="3L30"/>
	<edge from="n27" to="n106" id="27to106" type="2L30"/>
	<edge from="n106" to="n107" id="106to107" type="2L30"/>
	<edge from="n107" to="n28" id="107to28" type="3L30"/>
	<edge from="n28" to="n108" id="28to108" type="2L30"/>
	<edge from="n108" to="n109" id="108to109" type="2L30"/>
	<edge from="n109" to="n29" id="109to29" type="3L30"/>
	<edge from="n29" to="n110" id="29to110" type="2L30"/>
	<edge from="n110" to="n111" id="110to111" type="1L30"/>
	<edge from="n111" to="n30" id="111to30" type="3L30"/>
	<edge from="n30" to="n112" id="30to112" type="2L30"/>
	<edge from="n112" to="n113" id="112to113" type="2L30"/>
	<edge from="n113" to="n31" id="113to31" type="3L30"/>
	<edge from="n31" to="n114" id="31to114" type="2L30"/>
	<edge from="n114" to="n32" id="114to32" type="2L30"/>

	<edge to="n25" from="n103" id="103to25" type="2L30"/>
	<edge to="n103" from="n26" id="26to103" type="2L30"/>
	<edge to="n26" from="n104" id="104to26" type="3L30"/>
	<edge to="n104" from="n105" id="105to104" type="2L30"/>
	<edge to="n105" from="n27" id="27to105" type="2L30"/>
	<edge to="n27" from="n106" id="106to27" type="3L30"/>
	<edge to="n106" from="n107" id="107to106" type="2L30"/>
	<edge to="n107" from="n28" id="28to107" type="2L30"/>
	<edge to="n28" from="n108" id="108to28" type="3L30"/>
	<edge to="n108" from="n109" id="109to108" type="2L30"/>
	<edge to="n109" from="n29" id="29to109" type="2L30"/>
	<edge to="n30" from="n112" id="112to30" type="3L30"/>
	<edge to="n112" from="n113" id="113to112" type="2L30"/>
	<edge to="n113" from="n31" id="31to113" type="2L30"/>
	<edge to="n31" from="n114" id="114to31" type="3L30"/>
	<edge to="n114" from="n32" id="32to114" type="2L30"/>


	<edge from="n33" to="n127" id="33to127" type="2L30"/>
	<edge from="n127" to="n34" id="127to34" type="3L30"/>
	<edge from="n34" to="n128" id="34to128" type="2L30"/>
	<edge from="n128" to="n129" id="128to129" type="2L30"/>
	<edge from="n129" to="n35" id="129to35" type="3L30"/>
	<edge from="n35" to="n130" id="35to130" type="2L30"/>
	<edge from="n130" to="n131" id="130to131" type="2L30"/>
	<edge from="n131" to="n36" id="131to36" type="3L30"/>
	<edge from="n36" to="n132" id="36to132" type="2L30"/>
	<edge from="n132" to="n133" id="132to133" type="2L30"/>
	<edge from="n133" to="n37" id="133to37" type="3L30"/>
	<edge from="n37" to="n134" id="37to134" type="2L30"/>
	<edge from="n134" to="n135" id="134to135" type="2L30"/>
	<edge from="n135" to="n38" id="135to38" type="3L30"/>
	<edge from="n38" to="n136" id="38to136" type="2L30"/>
	<edge from="n136" to="n137" id="136to137" type="2L30"/>
	<edge from="n137" to="n39" id="137to39" type="3L30"/>
	<edge from="n39" to="n138" id="39to138" type="2L30"/>
	<edge from="n138" to="n40" id="138to40" type="2L30"/>

	<edge to="n33" from="n127" id="127to33" type="2L30"/>
	<edge to="n127" from="n34" id="34to127" type="2L30"/>
	<edge to="n34" from="n128" id="128to34" type="3L30"/>
	<edge to="n128" from="n129" id="129to128" type="2L30"/>
	<edge to="n129" from="n35" id="35to129" type="2L30"/>
	<edge to="n35" from="n130" id="130to35" type="3L30"/>
	<edge to="n130" from="n131" id="131to130" type="2L30"/>
	<edge to="n131" from="n36" id="36to131" type="2L30"/>
	<edge to="n36" from="n132" id="132to36" type="3L30"/>
	<edge to="n132" from="n133" id="133to132" type="2L30"/>
	<edge to="n133" from="n37" id="37to133" type="2L30"/>
	<edge to="n37" from="n134" id="134to37" type="3L30"/>
	<edge to="n134" from="n135" id="135to134" type="2L30"/>
	<edge to="n135" from="n38" id="38to135" type="2L30"/>
	<edge to="n38" from="n136" id="136to38" type="3L30"/>
	<edge to="n136" from="n137" id="137to136" type="2L30"/>
	<edge to="n137" from="n39" id="39to137" type="2L30"/>
	<edge to="n39" from="n138" id="138to39" type="3L30"/>
	<edge to="n138" from="n40" id="40to138" type="2L30"/>

	<edge from="n41" to="n42" id="41to42" type="2L30"/>
	<edge from="n42" to="n43" id="42to43" type="2L30"/>
	<edge from="n43" to="n44" id="43to44" type="2L30"/>
	<edge from="n44" to="n45" id="44to45" type="1L30"/>
	<edge from="n45" to="n46" id="45to46" type="1L30"/>
	<edge from="n46" to="n47" id="46to47" type="2L30"/>
	<edge from="n47" to="n48" id="47to48" type="2L30"/>
	
	<edge to="n41" from="n42" id="42to41" type="2L30"/>
	<edge to="n42" from="n43" id="43to42" type="2L30"/>
	<edge to="n43" from="n44" id="44to43" type="2L30"/>
	<edge to="n44" from="n45" id="45to44" type="1L30"/>
	<edge to="n45" from="n46" id="46to45" type="1L30"/>
	<edge to="n46" from="n47" id="47to46" type="2L30"/>
	<edge to="n47" from="n48" id="48to47" type="2L30"/>

	<!-- VERTICAL/-->

	<edge from="n1" to="n9" id="1to9" type="2L30"/>
	<edge from="n9" to="n17" id="9to17" type="2L30"/>
	<edge from="n25" to="n33" id="25to33" type="2L30"/>
	<edge from="n33" to="n41" id="33to41" type="2L30"/>
	
	<edge to="n1" from="n9" id="9to1" type="2L30"/>
	<edge to="n9" from="n17" id="17to9" type="2L30"/>
	<edge to="n17" from="n25" id="25to17" type="1L30"/>
	<edge to="n25" from="n33" id="33to25" type="2L30"/>
	<edge to="n33" from="n41" id="41to33" type="2L30"/>


	<edge from="n2" to="n49" id="2to49" type="2L30"/>
	<edge from="n49" to="n10" id="49to10" type="3L30"/>
	<edge from="n10" to="n67" id="10to67" type="2L30"/>
	<edge from="n67" to="n73" id="67to73" type="2L30"/>
	<edge from="n73" to="n18" id="73to18" type="3L30"/>
	<edge from="n18" to="n91" id="18to91" type="2L30"/>
	<edge from="n91" to="n97" id="91to97" type="2L30"/>
	<edge from="n97" to="n26" id="97to26" type="3L30"/>
	<edge from="n26" to="n115" id="26to115" type="2L30"/>
	<edge from="n115" to="n121" id="115to121" type="2L30"/>
	<edge from="n121" to="n34" id="121to34" type="3L30"/>
	<edge from="n34" to="n139" id="34to139" type="2L30"/>
	<edge from="n139" to="n42" id="139to42" type="2L30"/>
	
	<edge to="n2" from="n49" id="49to2" type="2L30"/>
	<edge to="n49" from="n10" id="10to49" type="2L30"/>
	<edge to="n10" from="n67" id="67to10" type="3L30"/>
	<edge to="n67" from="n73" id="73to67" type="2L30"/>
	<edge to="n73" from="n18" id="18to73" type="2L30"/>
	<edge to="n18" from="n91" id="91to18" type="3L30"/>
	<edge to="n91" from="n97" id="97to91" type="2L30"/>
	<edge to="n97" from="n26" id="26to97" type="2L30"/>
	<edge to="n26" from="n115" id="115to26" type="3L30"/>
	<edge to="n115" from="n121" id="121to115" type="2L30"/>
	<edge to="n121" from="n34" id="34to121" type="2L30"/>
	<edge to="n34" from="n139" id="139to34" type="3L30"/>
	<edge to="n139" from="n42" id="42to139" type="2L30"/>


	<edge from="n3" to="n50" id="3to50" type="2L30"/>
	<edge from="n50" to="n11" id="50to11" type="3L30"/>
	<edge from="n11" to="n68" id="11to68" type="2L30"/>
	<edge from="n68" to="n74" id="68to74" type="2L30"/>
	<edge from="n74" to="n19" id="74to19" type="3L30"/>
	<edge from="n19" to="n92" id="19to92" type="2L30"/>
	<edge from="n92" to="n98" id="92to98" type="2L30"/>
	<edge from="n98" to="n27" id="98to27" type="3L30"/>
	<edge from="n27" to="n116" id="27to116" type="2L30"/>
	<edge from="n116" to="n122" id="116to122" type="2L30"/>
	<edge from="n122" to="n35" id="122to35" type="3L30"/>
	<edge from="n35" to="n140" id="35to140" type="2L30"/>
	<edge from="n140" to="n43" id="140to43" type="2L30"/>

	<edge to="n3" from="n50" id="50to3" type="2L30"/>
	<edge to="n50" from="n11" id="11to50" type="2L30"/>
	<edge to="n11" from="n68" id="68to11" type="3L30"/>
	<edge to="n68" from="n74" id="74to68" type="2L30"/>
	<edge to="n74" from="n19" id="19to74" type="2L30"/>
	<edge to="n19" from="n92" id="92to19" type="3L30"/>
	<edge to="n92" from="n98" id="98to92" type="2L30"/>
	<edge to="n98" from="n27" id="27to98" type="2L30"/>
	<edge to="n27" from="n116" id="116to27" type="3L30"/>
	<edge to="n116" from="n122" id="122to116" type="2L30"/>
	<edge to="n122" from="n35" id="35to122" type="2L30"/>
	<edge to="n35" from="n140" id="140to35" type="3L30"/>
	<edge to="n140" from="n43" id="43to140" type="2L30"/>


	<edge from="n4" to="n51" id="4to51" type="2L30"/>
	<edge from="n51" to="n12" id="51to12" type="3L30"/>
	<edge from="n12" to="n69" id="12to69" type="2L30"/>
	<edge from="n69" to="n75" id="69to75" type="2L30"/>
	<edge from="n75" to="n20" id="75to20" type="3L30"/>
	<edge from="n20" to="n93" id="20to93" type="2L30"/>
	<edge from="n93" to="n99" id="93to99" type="2L30"/>
	<edge from="n99" to="n28" id="99to28" type="3L30"/>
	<edge from="n28" to="n117" id="28to117" type="2L30"/>
	<edge from="n117" to="n123" id="117to123" type="2L30"/>
	<edge from="n123" to="n36" id="123to36" type="3L30"/>
	<edge from="n36" to="n141" id="36to141" type="2L30"/>
	<edge from="n141" to="n44" id="141to44" type="2L30"/>

	<edge to="n4" from="n51" id="51to4" type="2L30"/>
	<edge to="n51" from="n12" id="12to51" type="2L30"/>
	<edge to="n12" from="n69" id="69to12" type="3L30"/>
	<edge to="n69" from="n75" id="75to69" type="2L30"/>
	<edge to="n75" from="n20" id="20to75" type="2L30"/>
	<edge to="n20" from="n93" id="93to20" type="3L30"/>
	<edge to="n93" from="n99" id="99to93" type="2L30"/>
	<edge to="n99" from="n28" id="28to99" type="2L30"/>
	<edge to="n28" from="n117" id="117to28" type="3L30"/>
	<edge to="n117" from="n123" id="123to117" type="2L30"/>
	<edge to="n123" from="n36" id="36to123" type="2L30"/>
	<edge to="n36" from="n141" id="141to36" type="3L30"/>
	<edge to="n141" from="n44" id="44to141" type="2L30"/>


	<edge from="n5" to="n52" id="5to52" type="2L30"/>
	<edge from="n52" to="n13" id="52to13" type="3L30"/>
	<edge from="n13" to="n70" id="13to70" type="2L30"/>
	<edge from="n70" to="n76" id="70to76" type="2L30"/>
	<edge from="n76" to="n21" id="76to21" type="3L30"/>
	<edge from="n21" to="n94" id="21to94" type="2L30"/>
	<edge from="n94" to="n100" id="94to100" type="2L30"/>
	<edge from="n100" to="n29" id="100to29" type="3L30"/>
	<edge from="n29" to="n118" id="29to118" type="2L30"/>
	<edge from="n118" to="n124" id="118to124" type="2L30"/>
	<edge from="n124" to="n37" id="124to37" type="3L30"/>
	<edge from="n37" to="n142" id="37to142" type="2L30"/>
	<edge from="n142" to="n45" id="142to45" type="2L30"/>


	<edge to="n5" from="n52" id="52to5" type="2L30"/>
	<edge to="n52" from="n13" id="13to52" type="2L30"/>
	<edge to="n13" from="n70" id="70to13" type="3L30"/>
	<edge to="n70" from="n76" id="76to70" type="2L30"/>
	<edge to="n76" from="n21" id="21to76" type="2L30"/>
	<edge to="n21" from="n94" id="94to21" type="3L30"/>
	<edge to="n94" from="n100" id="100to94" type="2L30"/>
	<edge to="n100" from="n29" id="29to100" type="2L30"/>
	<edge to="n29" from="n118" id="118to29" type="3L30"/>
	<edge to="n118" from="n124" id="124to118" type="2L30"/>
	<edge to="n124" from="n37" id="37to124" type="2L30"/>
	<edge to="n37" from="n142" id="142to37" type="3L30"/>
	<edge to="n142" from="n45" id="45to142" type="2L30"/>


	<edge from="n6" to="n53" id="6to53" type="2L30"/>
	<edge from="n53" to="n14" id="53to14" type="3L30"/>
	<edge from="n14" to="n71" id="14to71" type="2L30"/>
	<edge from="n71" to="n77" id="71to77" type="2L30"/>
	<edge from="n77" to="n22" id="77to22" type="3L30"/>
	<edge from="n22" to="n95" id="22to95" type="2L30"/>
	<edge from="n95" to="n101" id="95to101" type="2L30"/>
	<edge from="n101" to="n30" id="101to30" type="3L30"/>
	<edge from="n30" to="n119" id="30to119" type="2L30"/>
	<edge from="n119" to="n125" id="119to125" type="2L30"/>
	<edge from="n125" to="n38" id="125to38" type="3L30"/>
	<edge from="n38" to="n143" id="38to143" type="2L30"/>
	<edge from="n143" to="n46" id="143to46" type="2L30"/>

	<edge to="n6" from="n53" id="53to6" type="2L30"/>
	<edge to="n53" from="n14" id="14to53" type="2L30"/>
	<edge to="n14" from="n71" id="71to14" type="3L30"/>
	<edge to="n71" from="n77" id="77to71" type="2L30"/>
	<edge to="n77" from="n22" id="22to77" type="2L30"/>
	<edge to="n22" from="n95" id="95to22" type="3L30"/>
	<edge to="n95" from="n101" id="101to95" type="2L30"/>
	<edge to="n101" from="n30" id="30to101" type="2L30"/>
	<edge to="n30" from="n119" id="119to30" type="3L30"/>
	<edge to="n119" from="n125" id="125to119" type="2L30"/>
	<edge to="n125" from="n38" id="38to125" type="2L30"/>
	<edge to="n38" from="n143" id="143to38" type="3L30"/>
	<edge to="n143" from="n46" id="46to143" type="2L30"/>

	
	<edge from="n7" to="n54" id="7to54" type="2L30"/>
	<edge from="n54" to="n15" id="54to15" type="3L30"/>
	<edge from="n15" to="n72" id="15to72" type="1L30"/>
	<edge from="n72" to="n78" id="72to78" type="1L30"/>
	<edge from="n78" to="n23" id="78to23" type="2L30"/>
	<edge from="n23" to="n96" id="23to96" type="1L30"/>
	<edge from="n96" to="n102" id="96to102" type="1L30"/>
	<edge from="n102" to="n31" id="102to31" type="3L30"/>
	<edge from="n31" to="n120" id="31to120" type="2L30"/>
	<edge from="n120" to="n126" id="120to126" type="2L30"/>
	<edge from="n126" to="n39" id="126to39" type="3L30"/>
	<edge from="n39" to="n144" id="39to144" type="2L30"/>
	<edge from="n144" to="n47" id="144to47" type="2L30"/>

	<edge to="n7" from="n54" id="54to7" type="2L30"/>
	<edge to="n54" from="n15" id="15to54" type="2L30"/>
	<edge to="n15" from="n72" id="72to15" type="2L30"/>
	<edge to="n72" from="n78" id="78to72" type="1L30"/>
	<edge to="n78" from="n23" id="23to78" type="1L30"/>
	<edge to="n23" from="n96" id="96to23" type="2L30"/>
	<edge to="n96" from="n102" id="102to96" type="1L30"/>
	<edge to="n102" from="n31" id="31to102" type="1L30"/>
	<edge to="n31" from="n120" id="120to31" type="3L30"/>
	<edge to="n120" from="n126" id="126to120" type="2L30"/>
	<edge to="n126" from="n39" id="39to126" type="2L30"/>
	<edge to="n39" from="n144" id="144to39" type="3L30"/>
	<edge to="n144" from="n47" id="47to144" type="2L30"/>

	
	<edge from="n8" to="n16" id="8to16" type="2L30"/>
	<edge from="n16" to="n24" id="16to24" type="2L30"/>
	<edge from="n24" to="n32" id="24to32" type="2L30"/>
	<edge from="n32" to="n40" id="32to40" type="2L30"/>
	<edge from="n40" to="n48" id="40to48" type="2L30"/>	

	<edge to="n8" from="n16" id="16to8" type="2L30"/>
	<edge to="n16" from="n24" id="24to16" type="2L30"/>
	<edge to="n24" from="n32" id="32to24" type="2L30"/>
	<edge to="n32" from="n40" id="40to32" type="2L30"/>
	<edge to="n40" from="n48" id="48to40" type="2L30"/>



	<edge from="n145" to="n1" id="145to1" type="2L30"/>
	<edge from="n146" to="n2" id="146to2" type="2L30"/>
	<edge from="n147" to="n3" id="147to3" type="2L30"/>
	<edge from="n148" to="n4" id="148to4" type="2L30"/>
	<edge from="n149" to="n5" id="149to5" type="2L30"/>
	<edge from="n150" to="n6" id="150to6" type="2L30"/>
	<edge from="n151" to="n7" id="151to7" type="2L30"/>
	<edge from="n152" to="n8" id="152to8" type="2L30"/>
	<edge from="n153" to="n9" id="153to9" type="2L30"/>
	<edge from="n154" to="n16" id="154to16" type="2L30"/>
	<edge from="n155" to="n17" id="155to17" type="2L30"/>
	<edge from="n156" to="n24" id="156to24" type="2L30"/>
	<edge from="n157" to="n25" id="157to25" type="2L30"/>
	<edge from="n158" to="n32" id="158to32" type="2L30"/>
	<edge from="n159" to="n33" id="159to33" type="2L30"/>
	<edge from="n160" to="n40" id="160to40" type="2L30"/>
	<edge from="n161" to="n41" id="161to41" type="2L30"/>
	<edge from="n162" to="n42" id="162to42" type="2L30"/>
	<edge from="n163" to="n43" id="163to43" type="2L30"/>
	<edge from="n164" to="n44" id="164to44" type="2L30"/>
	<edge from="n165" to="n45" id="165to45" type="2L30"/>
	<edge from="n166" to="n46" id="166to46" type="2L30"/>
	<edge from="n167" to="n47" id="167to47" type="2L30"/>
	<edge from="n168" to="n48" id="168to48" type="2L30"/>

	
	<edge to="n146" from="n2" id="2to146" type="2L30"/>
	<edge to="n147" from="n3" id="3to147" type="2L30"/>
	<edge to="n148" from="n4" id="4to148" type="2L30"/>
	<edge to="n149" from="n5" id="5to149" type="2L30"/>
	<edge to="n150" from="n6" id="6to150" type="2L30"/>
	<edge to="n151" from="n7" id="7to151" type="2L30"/>
	<edge to="n152" from="n8" id="8to152" type="2L30"/>
	<edge to="n153" from="n9" id="9to153" type="2L30"/>
	<edge to="n154" from="n16" id="16to154" type="2L30"/>
	<edge to="n155" from="n17" id="17to155" type="2L30"/>
	<edge to="n156" from="n24" id="24to156" type="2L30"/>
	<edge to="n157" from="n25" id="25to157" type="2L30"/>
	<edge to="n158" from="n32" id="32to158" type="2L30"/>
	<edge to="n159" from="n33" id="33to159" type="2L30"/>
	<edge to="n160" from="n40" id="40to160" type="2L30"/>
	<edge to="n161" from="n41" id="41to161" type="2L30"/>
	<edge to="n162" from="n42" id="42to162" type="2L30"/>
	<edge to="n163" from="n43" id="43to163" type="2L30"/>
	<edge to="n164" from="n44" id="44to164" type="2L30"/>
	<edge to="n165" from="n45" id="45to165" type="2L30"/>
	<edge to="n166" from="n46" id="46to166" type="2L30"/>
	<edge to="n167" from="n47" id="47to167" type="2L30"/>
	<edge to="n168" from="n48" id="48to168" type="2L30"/>

	

	<edge from="n1" to="n145" id="1to145" type="2L30"/>

</edges>