<?xml version="1.0" encoding="UTF-8"?>

<!-- generated on 18/04/2019 10:03:04 by Netedit Version 0.32.0
<?xml version="1.0" encoding="UTF-8"?>

<configuration xmlns:xsi="http://www.w3.org/2001/XMLSchema-instance" xsi:noNamespaceSchemaLocation="http://sumo.dlr.de/xsd/netconvertConfiguration.xsd">

    <input>
        <sumo-net-file value="C:\Users\PEB2BRG\src\veins-4.7.1\examples\veins\erlangen.net.xml"/>
    </input>

    <output>
        <output-file value="C:\Users\PEB2BRG\src\veins-4.7.1\examples\veins\erlangen.net.xml"/>
    </output>

    <processing>
        <no-turnarounds value="true"/>
        <offset.disable-normalization value="true"/>
        <lefthand value="false"/>
        <junctions.corner-detail value="0"/>
        <rectangular-lane-cut value="false"/>
        <walkingareas value="false"/>
    </processing>

    <visualisation>
        <registry-viewport value="true"/>
    </visualisation>

</configuration>
-->

<net version="0.27" xmlns:xsi="http://www.w3.org/2001/XMLSchema-instance" xsi:noNamespaceSchemaLocation="http://sumo.dlr.de/xsd/net_file.xsd">

    <location netOffset="20.00,20.00" convBoundary="0.00,0.00,1040.00,540.00" origBoundary="-20.00,-20.00,1020.00,520.00" projParameter="!"/>

    <type id="1L30" priority="1" numLanes="1" speed="30.00"/>
    <type id="1L50" priority="1" numLanes="1" speed="50.00"/>
    <type id="1L90" priority="1" numLanes="1" speed="90.00"/>
    <type id="2L30" priority="1" numLanes="2" speed="30.00"/>
    <type id="2L50" priority="1" numLanes="2" speed="50.00"/>
    <type id="2L90" priority="1" numLanes="2" speed="90.00"/>
    <type id="3L30" priority="1" numLanes="3" speed="30.00"/>

    <edge id=":n1_0" function="internal">
        <lane id=":n1_0_0" index="0" speed="30.00" length="16.10" shape="18.35,528.05 18.35,511.95"/>
    </edge>
    <edge id=":n1_1" function="internal">
        <lane id=":n1_1_0" index="0" speed="30.00" length="6.41" shape="18.35,528.05 18.96,523.81 20.05,521.98"/>
    </edge>
    <edge id=":n1_6" function="internal">
        <lane id=":n1_6_0" index="0" speed="30.00" length="9.23" shape="20.05,521.98 20.77,520.77 23.81,518.96 28.05,518.35"/>
    </edge>
    <edge id=":n1_2" function="internal">
        <lane id=":n1_2_0" index="0" speed="30.00" length="10.32" shape="28.05,521.65 25.25,522.05 23.25,523.25 22.05,525.25 21.65,528.05"/>
    </edge>
    <edge id=":n1_3" function="internal">
        <lane id=":n1_3_0" index="0" speed="30.00" length="15.64" shape="28.05,521.65 23.81,521.04 20.78,519.22 18.96,516.19 18.35,511.95"/>
    </edge>
    <edge id=":n1_4" function="internal">
        <lane id=":n1_4_0" index="0" speed="30.00" length="10.32" shape="21.65,511.95 22.05,514.75 23.25,516.75 25.25,517.95 28.05,518.35"/>
    </edge>
    <edge id=":n1_5" function="internal">
        <lane id=":n1_5_0" index="0" speed="30.00" length="16.10" shape="21.65,511.95 21.65,528.05"/>
    </edge>
    <edge id=":n10_0" function="internal">
        <lane id=":n10_0_0" index="0" speed="30.00" length="10.32" shape="1018.35,278.05 1017.95,275.25 1016.75,273.25 1014.75,272.05 1011.95,271.65"/>
    </edge>
    <edge id=":n10_1" function="internal">
        <lane id=":n10_1_0" index="0" speed="30.00" length="16.10" shape="1018.35,278.05 1018.35,261.95"/>
    </edge>
    <edge id=":n10_2" function="internal">
        <lane id=":n10_2_0" index="0" speed="30.00" length="15.64" shape="1018.35,278.05 1018.96,273.81 1020.78,270.77 1023.81,268.96 1028.05,268.35"/>
    </edge>
    <edge id=":n10_3" function="internal">
        <lane id=":n10_3_0" index="0" speed="30.00" length="10.32" shape="1028.05,271.65 1025.25,272.05 1023.25,273.25 1022.05,275.25 1021.65,278.05"/>
    </edge>
    <edge id=":n10_4" function="internal">
        <lane id=":n10_4_0" index="0" speed="30.00" length="16.10" shape="1028.05,271.65 1011.95,271.65"/>
    </edge>
    <edge id=":n10_5" function="internal">
        <lane id=":n10_5_0" index="0" speed="30.00" length="15.64" shape="1028.05,271.65 1023.81,271.04 1020.78,269.22 1018.96,266.19 1018.35,261.95"/>
    </edge>
    <edge id=":n10_6" function="internal">
        <lane id=":n10_6_0" index="0" speed="30.00" length="10.32" shape="1021.65,261.95 1022.05,264.75 1023.25,266.75 1025.25,267.95 1028.05,268.35"/>
    </edge>
    <edge id=":n10_7" function="internal">
        <lane id=":n10_7_0" index="0" speed="30.00" length="16.10" shape="1021.65,261.95 1021.65,278.05"/>
    </edge>
    <edge id=":n10_8" function="internal">
        <lane id=":n10_8_0" index="0" speed="30.00" length="15.64" shape="1021.65,261.95 1021.04,266.19 1019.22,269.23 1016.19,271.04 1011.95,271.65"/>
    </edge>
    <edge id=":n10_9" function="internal">
        <lane id=":n10_9_0" index="0" speed="30.00" length="10.32" shape="1011.95,268.35 1014.75,267.95 1016.75,266.75 1017.95,264.75 1018.35,261.95"/>
    </edge>
    <edge id=":n10_10" function="internal">
        <lane id=":n10_10_0" index="0" speed="30.00" length="16.10" shape="1011.95,268.35 1028.05,268.35"/>
    </edge>
    <edge id=":n10_11" function="internal">
        <lane id=":n10_11_0" index="0" speed="30.00" length="15.64" shape="1011.95,268.35 1016.19,268.96 1019.23,270.78 1021.04,273.81 1021.65,278.05"/>
    </edge>
    <edge id=":n11_0" function="internal">
        <lane id=":n11_0_0" index="0" speed="30.00" length="16.10" shape="18.35,28.05 18.35,11.95"/>
    </edge>
    <edge id=":n11_1" function="internal">
        <lane id=":n11_1_0" index="0" speed="60.00" length="15.64" shape="18.35,28.05 18.96,23.81 20.77,20.77 23.81,18.96 28.05,18.35"/>
    </edge>
    <edge id=":n11_2" function="internal">
        <lane id=":n11_2_0" index="0" speed="60.00" length="10.32" shape="28.05,21.65 25.25,22.05 23.25,23.25 22.05,25.25 21.65,28.05"/>
    </edge>
    <edge id=":n11_3" function="internal">
        <lane id=":n11_3_0" index="0" speed="60.00" length="15.64" shape="28.05,21.65 23.81,21.04 20.78,19.22 18.96,16.19 18.35,11.95"/>
    </edge>
    <edge id=":n11_4" function="internal">
        <lane id=":n11_4_0" index="0" speed="60.00" length="10.32" shape="21.65,11.95 22.05,14.75 23.25,16.75 25.25,17.95 28.05,18.35"/>
    </edge>
    <edge id=":n11_5" function="internal">
        <lane id=":n11_5_0" index="0" speed="30.00" length="16.10" shape="21.65,11.95 21.65,28.05"/>
    </edge>
    <edge id=":n12_0" function="internal">
        <lane id=":n12_0_0" index="0" speed="60.00" length="10.32" shape="268.35,28.05 267.95,25.25 266.75,23.25 264.75,22.05 261.95,21.65"/>
    </edge>
    <edge id=":n12_1" function="internal">
        <lane id=":n12_1_0" index="0" speed="30.00" length="16.10" shape="268.35,28.05 268.35,11.95"/>
    </edge>
    <edge id=":n12_2" function="internal">
        <lane id=":n12_2_0" index="0" speed="40.00" length="15.64" shape="268.35,28.05 268.96,23.81 270.78,20.77 273.81,18.96 278.05,18.35"/>
    </edge>
    <edge id=":n12_3" function="internal">
        <lane id=":n12_3_0" index="0" speed="40.00" length="10.32" shape="271.65,11.95 272.05,14.75 273.25,16.75 275.25,17.95 278.05,18.35"/>
    </edge>
    <edge id=":n12_4" function="internal">
        <lane id=":n12_4_0" index="0" speed="30.00" length="16.10" shape="271.65,11.95 271.65,28.05"/>
    </edge>
    <edge id=":n12_5" function="internal">
        <lane id=":n12_5_0" index="0" speed="60.00" length="15.64" shape="271.65,11.95 271.04,16.19 269.22,19.22 266.19,21.04 261.95,21.65"/>
    </edge>
    <edge id=":n12_6" function="internal">
        <lane id=":n12_6_0" index="0" speed="60.00" length="10.32" shape="261.95,18.35 264.75,17.95 266.75,16.75 267.95,14.75 268.35,11.95"/>
    </edge>
    <edge id=":n12_7" function="internal">
        <lane id=":n12_7_0" index="0" speed="70.00" length="16.10" shape="261.95,18.35 278.05,18.35"/>
    </edge>
    <edge id=":n12_8" function="internal">
        <lane id=":n12_8_0" index="0" speed="60.00" length="15.64" shape="261.95,18.35 266.19,18.96 269.23,20.77 271.04,23.81 271.65,28.05"/>
    </edge>
    <edge id=":n13_0" function="internal">
        <lane id=":n13_0_0" index="0" speed="30.00" length="9.50" shape="518.35,24.75 518.35,15.25"/>
    </edge>
    <edge id=":n13_1" function="internal">
        <lane id=":n13_1_0" index="0" speed="30.00" length="13.09" shape="518.35,24.75 518.96,21.95 520.78,19.95 523.81,18.75 528.05,18.35"/>
    </edge>
    <edge id=":n13_2" function="internal">
        <lane id=":n13_2_0" index="0" speed="30.00" length="5.00" shape="528.05,21.65 526.69,21.84 525.73,22.42 525.14,23.39 524.95,24.75"/>
    </edge>
    <edge id=":n13_3" function="internal">
        <lane id=":n13_3_0" index="0" speed="30.00" length="13.09" shape="528.05,21.65 523.81,21.25 520.77,20.05 518.96,18.05 518.35,15.25"/>
    </edge>
    <edge id=":n13_4" function="internal">
        <lane id=":n13_4_0" index="0" speed="30.00" length="7.85" shape="521.65,15.25 522.05,16.61 523.25,17.57 525.25,18.16 528.05,18.35"/>
    </edge>
    <edge id=":n13_5" function="internal">
        <lane id=":n13_5_0" index="0" speed="30.00" length="9.50" shape="521.65,15.25 521.65,24.75"/>
    </edge>
    <edge id=":n13_6" function="internal">
        <lane id=":n13_6_0" index="0" speed="40.00" length="5.00" shape="511.95,18.35 513.31,18.16 514.27,17.58 514.86,16.61 515.05,15.25"/>
    </edge>
    <edge id=":n13_7" function="internal">
        <lane id=":n13_7_0" index="0" speed="40.00" length="16.10" shape="511.95,18.35 528.05,18.35"/>
    </edge>
    <edge id=":n13_8" function="internal">
        <lane id=":n13_8_0" index="0" speed="40.00" length="13.09" shape="511.95,18.35 516.19,18.75 519.23,19.95 521.04,21.95 521.65,24.75"/>
    </edge>
    <edge id=":n14_0" function="internal">
        <lane id=":n14_0_0" index="0" speed="30.00" length="10.32" shape="768.35,28.05 767.95,25.25 766.75,23.25 764.75,22.05 761.95,21.65"/>
    </edge>
    <edge id=":n14_1" function="internal">
        <lane id=":n14_1_0" index="0" speed="30.00" length="12.80" shape="768.35,28.05 768.35,15.25"/>
    </edge>
    <edge id=":n14_2" function="internal">
        <lane id=":n14_2_0" index="0" speed="40.00" length="15.64" shape="768.35,28.05 768.96,23.81 770.78,20.77 773.81,18.96 778.05,18.35"/>
    </edge>
    <edge id=":n14_3" function="internal">
        <lane id=":n14_3_0" index="0" speed="40.00" length="10.32" shape="778.05,21.65 775.25,22.05 773.25,23.25 772.05,25.25 771.65,28.05"/>
    </edge>
    <edge id=":n14_4" function="internal">
        <lane id=":n14_4_0" index="0" speed="40.00" length="16.10" shape="778.05,21.65 761.95,21.65"/>
    </edge>
    <edge id=":n14_5" function="internal">
        <lane id=":n14_5_0" index="0" speed="40.00" length="13.09" shape="778.05,21.65 773.81,21.25 770.77,20.05 768.96,18.05 768.35,15.25"/>
    </edge>
    <edge id=":n14_6" function="internal">
        <lane id=":n14_6_0" index="0" speed="40.00" length="7.85" shape="771.65,15.25 772.05,16.61 773.25,17.57 775.25,18.16 778.05,18.35"/>
    </edge>
    <edge id=":n14_7" function="internal">
        <lane id=":n14_7_0" index="0" speed="30.00" length="12.80" shape="771.65,15.25 771.65,28.05"/>
    </edge>
    <edge id=":n14_8" function="internal">
        <lane id=":n14_8_0" index="0" speed="30.00" length="13.09" shape="771.65,15.25 771.04,18.05 769.22,20.05 766.19,21.25 761.95,21.65"/>
    </edge>
    <edge id=":n14_9" function="internal">
        <lane id=":n14_9_0" index="0" speed="30.00" length="7.85" shape="761.95,18.35 764.75,18.16 766.75,17.58 767.95,16.61 768.35,15.25"/>
    </edge>
    <edge id=":n14_10" function="internal">
        <lane id=":n14_10_0" index="0" speed="40.00" length="16.10" shape="761.95,18.35 778.05,18.35"/>
    </edge>
    <edge id=":n14_11" function="internal">
        <lane id=":n14_11_0" index="0" speed="30.00" length="15.64" shape="761.95,18.35 766.19,18.96 769.23,20.78 771.04,23.81 771.65,28.05"/>
    </edge>
    <edge id=":n15_0" function="internal">
        <lane id=":n15_0_0" index="0" speed="40.00" length="10.32" shape="1018.35,28.05 1017.95,25.25 1016.75,23.25 1014.75,22.05 1011.95,21.65"/>
    </edge>
    <edge id=":n15_1" function="internal">
        <lane id=":n15_1_0" index="0" speed="30.00" length="12.80" shape="1018.35,28.05 1018.35,15.25"/>
    </edge>
    <edge id=":n15_2" function="internal">
        <lane id=":n15_2_0" index="0" speed="30.00" length="12.80" shape="1021.65,15.25 1021.65,28.05"/>
    </edge>
    <edge id=":n15_3" function="internal">
        <lane id=":n15_3_0" index="0" speed="40.00" length="13.09" shape="1021.65,15.25 1021.04,18.05 1019.22,20.05 1016.19,21.25 1011.95,21.65"/>
    </edge>
    <edge id=":n15_4" function="internal">
        <lane id=":n15_4_0" index="0" speed="40.00" length="5.00" shape="1011.95,18.35 1013.31,18.16 1014.27,17.58 1014.86,16.61 1015.05,15.25"/>
    </edge>
    <edge id=":n15_5" function="internal">
        <lane id=":n15_5_0" index="0" speed="40.00" length="15.64" shape="1011.95,18.35 1016.19,18.96 1019.23,20.77 1021.04,23.81 1021.65,28.05"/>
    </edge>
    <edge id=":n16_0" function="internal">
        <lane id=":n16_0_0" index="0" speed="30.00" length="3.73" shape="268.35,321.50 265.05,318.50"/>
        <lane id=":n16_0_1" index="1" speed="30.00" length="3.73" shape="268.35,321.50 268.35,318.50"/>
    </edge>
    <edge id=":n16_2" function="internal">
        <lane id=":n16_2_0" index="0" speed="40.00" length="3.00" shape="271.65,318.50 271.65,321.50"/>
    </edge>
    <edge id=":n17_0" function="internal">
        <lane id=":n17_0_0" index="0" speed="30.00" length="3.73" shape="518.35,321.50 515.05,318.50"/>
        <lane id=":n17_0_1" index="1" speed="30.00" length="3.73" shape="518.35,321.50 518.35,318.50"/>
    </edge>
    <edge id=":n17_2" function="internal">
        <lane id=":n17_2_0" index="0" speed="40.00" length="3.00" shape="521.65,318.50 521.65,321.50"/>
    </edge>
    <edge id=":n18_0" function="internal">
        <lane id=":n18_0_0" index="0" speed="30.00" length="3.73" shape="768.35,321.50 765.05,318.50"/>
        <lane id=":n18_0_1" index="1" speed="30.00" length="3.73" shape="768.35,321.50 768.35,318.50"/>
    </edge>
    <edge id=":n18_2" function="internal">
        <lane id=":n18_2_0" index="0" speed="40.00" length="3.00" shape="771.65,318.50 771.65,321.50"/>
    </edge>
    <edge id=":n2_0" function="internal">
        <lane id=":n2_0_0" index="0" speed="30.00" length="10.32" shape="268.35,528.05 267.95,525.25 266.75,523.25 264.75,522.05 261.95,521.65"/>
    </edge>
    <edge id=":n2_1" function="internal">
        <lane id=":n2_1_0" index="0" speed="30.00" length="16.10" shape="268.35,528.05 268.35,511.95"/>
    </edge>
    <edge id=":n2_2" function="internal">
        <lane id=":n2_2_0" index="0" speed="30.00" length="6.41" shape="268.35,528.05 268.96,523.81 270.05,521.98"/>
    </edge>
    <edge id=":n2_12" function="internal">
        <lane id=":n2_12_0" index="0" speed="30.00" length="9.23" shape="270.05,521.98 270.78,520.77 273.81,518.96 278.05,518.35"/>
    </edge>
    <edge id=":n2_3" function="internal">
        <lane id=":n2_3_0" index="0" speed="30.00" length="10.32" shape="278.05,521.65 275.25,522.05 273.25,523.25 272.05,525.25 271.65,528.05"/>
    </edge>
    <edge id=":n2_4" function="internal">
        <lane id=":n2_4_0" index="0" speed="30.00" length="16.10" shape="278.05,521.65 261.95,521.65"/>
    </edge>
    <edge id=":n2_5" function="internal">
        <lane id=":n2_5_0" index="0" speed="30.00" length="15.64" shape="278.05,521.65 273.81,521.04 270.77,519.22 268.96,516.19 268.35,511.95"/>
    </edge>
    <edge id=":n2_6" function="internal">
        <lane id=":n2_6_0" index="0" speed="30.00" length="10.32" shape="271.65,511.95 272.05,514.75 273.25,516.75 275.25,517.95 278.05,518.35"/>
    </edge>
    <edge id=":n2_7" function="internal">
        <lane id=":n2_7_0" index="0" speed="30.00" length="16.10" shape="271.65,511.95 271.65,528.05"/>
    </edge>
    <edge id=":n2_8" function="internal">
        <lane id=":n2_8_0" index="0" speed="30.00" length="6.41" shape="271.65,511.95 271.04,516.19 269.95,518.02"/>
    </edge>
    <edge id=":n2_13" function="internal">
        <lane id=":n2_13_0" index="0" speed="30.00" length="9.23" shape="269.95,518.02 269.22,519.23 266.19,521.04 261.95,521.65"/>
    </edge>
    <edge id=":n2_9" function="internal">
        <lane id=":n2_9_0" index="0" speed="30.00" length="10.32" shape="261.95,518.35 264.75,517.95 266.75,516.75 267.95,514.75 268.35,511.95"/>
    </edge>
    <edge id=":n2_10" function="internal">
        <lane id=":n2_10_0" index="0" speed="30.00" length="16.10" shape="261.95,518.35 278.05,518.35"/>
    </edge>
    <edge id=":n2_11" function="internal">
        <lane id=":n2_11_0" index="0" speed="30.00" length="15.64" shape="261.95,518.35 266.19,518.96 269.23,520.78 271.04,523.81 271.65,528.05"/>
    </edge>
    <edge id=":n20_0" function="internal">
        <lane id=":n20_0_0" index="0" speed="40.00" length="3.00" shape="221.50,271.65 218.50,271.65"/>
    </edge>
    <edge id=":n20_1" function="internal">
        <lane id=":n20_1_0" index="0" speed="30.00" length="3.73" shape="218.50,268.35 221.50,265.05"/>
        <lane id=":n20_1_1" index="1" speed="30.00" length="3.73" shape="218.50,268.35 221.50,268.35"/>
    </edge>
    <edge id=":n21_0" function="internal">
        <lane id=":n21_0_0" index="0" speed="50.00" length="3.00" shape="471.50,271.65 468.50,271.65"/>
    </edge>
    <edge id=":n21_1" function="internal">
        <lane id=":n21_1_0" index="0" speed="40.00" length="3.73" shape="468.50,268.35 471.50,265.05"/>
        <lane id=":n21_1_1" index="1" speed="40.00" length="3.73" shape="468.50,268.35 471.50,268.35"/>
    </edge>
    <edge id=":n22_0" function="internal">
        <lane id=":n22_0_0" index="0" speed="50.00" length="3.00" shape="721.50,271.65 718.50,271.65"/>
    </edge>
    <edge id=":n22_1" function="internal">
        <lane id=":n22_1_0" index="0" speed="40.00" length="3.73" shape="718.50,268.35 721.50,265.05"/>
        <lane id=":n22_1_1" index="1" speed="40.00" length="3.73" shape="718.50,268.35 721.50,268.35"/>
    </edge>
    <edge id=":n23_0" function="internal">
        <lane id=":n23_0_0" index="0" speed="40.00" length="3.00" shape="268.35,221.50 268.35,218.50"/>
    </edge>
    <edge id=":n23_1" function="internal">
        <lane id=":n23_1_0" index="0" speed="30.00" length="3.73" shape="271.65,218.50 274.95,221.50"/>
        <lane id=":n23_1_1" index="1" speed="30.00" length="3.73" shape="271.65,218.50 271.65,221.50"/>
    </edge>
    <edge id=":n24_0" function="internal">
        <lane id=":n24_0_0" index="0" speed="40.00" length="3.00" shape="518.35,221.50 518.35,218.50"/>
    </edge>
    <edge id=":n24_1" function="internal">
        <lane id=":n24_1_0" index="0" speed="30.00" length="3.73" shape="521.65,218.50 524.95,221.50"/>
        <lane id=":n24_1_1" index="1" speed="30.00" length="3.73" shape="521.65,218.50 521.65,221.50"/>
    </edge>
    <edge id=":n25_0" function="internal">
        <lane id=":n25_0_0" index="0" speed="40.00" length="3.00" shape="768.35,221.50 768.35,218.50"/>
    </edge>
    <edge id=":n25_1" function="internal">
        <lane id=":n25_1_0" index="0" speed="30.00" length="3.73" shape="771.65,218.50 774.95,221.50"/>
        <lane id=":n25_1_1" index="1" speed="30.00" length="3.73" shape="771.65,218.50 771.65,221.50"/>
    </edge>
    <edge id=":n26_0" function="internal">
        <lane id=":n26_0_0" index="0" speed="40.00" length="3.73" shape="321.50,271.65 318.50,274.95"/>
        <lane id=":n26_0_1" index="1" speed="40.00" length="3.73" shape="321.50,271.65 318.50,271.65"/>
    </edge>
    <edge id=":n26_2" function="internal">
        <lane id=":n26_2_0" index="0" speed="50.00" length="3.00" shape="318.50,268.35 321.50,268.35"/>
    </edge>
    <edge id=":n27_0" function="internal">
        <lane id=":n27_0_0" index="0" speed="40.00" length="3.73" shape="571.50,271.65 568.50,274.95"/>
        <lane id=":n27_0_1" index="1" speed="40.00" length="3.73" shape="571.50,271.65 568.50,271.65"/>
    </edge>
    <edge id=":n27_2" function="internal">
        <lane id=":n27_2_0" index="0" speed="50.00" length="3.00" shape="568.50,268.35 571.50,268.35"/>
    </edge>
    <edge id=":n28_0" function="internal">
        <lane id=":n28_0_0" index="0" speed="30.00" length="3.73" shape="821.50,271.65 818.50,274.95"/>
        <lane id=":n28_0_1" index="1" speed="30.00" length="3.73" shape="821.50,271.65 818.50,271.65"/>
    </edge>
    <edge id=":n28_2" function="internal">
        <lane id=":n28_2_0" index="0" speed="40.00" length="3.00" shape="818.50,268.35 821.50,268.35"/>
    </edge>
    <edge id=":n3_0" function="internal">
        <lane id=":n3_0_0" index="0" speed="30.00" length="10.32" shape="518.35,528.05 517.95,525.25 516.75,523.25 514.75,522.05 511.95,521.65"/>
    </edge>
    <edge id=":n3_1" function="internal">
        <lane id=":n3_1_0" index="0" speed="30.00" length="16.10" shape="518.35,528.05 518.35,511.95"/>
    </edge>
    <edge id=":n3_2" function="internal">
        <lane id=":n3_2_0" index="0" speed="30.00" length="6.41" shape="518.35,528.05 518.96,523.81 520.05,521.98"/>
    </edge>
    <edge id=":n3_12" function="internal">
        <lane id=":n3_12_0" index="0" speed="30.00" length="9.23" shape="520.05,521.98 520.78,520.77 523.81,518.96 528.05,518.35"/>
    </edge>
    <edge id=":n3_3" function="internal">
        <lane id=":n3_3_0" index="0" speed="30.00" length="10.32" shape="528.05,521.65 525.25,522.05 523.25,523.25 522.05,525.25 521.65,528.05"/>
    </edge>
    <edge id=":n3_4" function="internal">
        <lane id=":n3_4_0" index="0" speed="30.00" length="16.10" shape="528.05,521.65 511.95,521.65"/>
    </edge>
    <edge id=":n3_5" function="internal">
        <lane id=":n3_5_0" index="0" speed="30.00" length="15.64" shape="528.05,521.65 523.81,521.04 520.77,519.22 518.96,516.19 518.35,511.95"/>
    </edge>
    <edge id=":n3_6" function="internal">
        <lane id=":n3_6_0" index="0" speed="30.00" length="10.32" shape="521.65,511.95 522.05,514.75 523.25,516.75 525.25,517.95 528.05,518.35"/>
    </edge>
    <edge id=":n3_7" function="internal">
        <lane id=":n3_7_0" index="0" speed="30.00" length="16.10" shape="521.65,511.95 521.65,528.05"/>
    </edge>
    <edge id=":n3_8" function="internal">
        <lane id=":n3_8_0" index="0" speed="30.00" length="6.41" shape="521.65,511.95 521.04,516.19 519.95,518.02"/>
    </edge>
    <edge id=":n3_13" function="internal">
        <lane id=":n3_13_0" index="0" speed="30.00" length="9.23" shape="519.95,518.02 519.22,519.23 516.19,521.04 511.95,521.65"/>
    </edge>
    <edge id=":n3_9" function="internal">
        <lane id=":n3_9_0" index="0" speed="30.00" length="10.32" shape="511.95,518.35 514.75,517.95 516.75,516.75 517.95,514.75 518.35,511.95"/>
    </edge>
    <edge id=":n3_10" function="internal">
        <lane id=":n3_10_0" index="0" speed="30.00" length="16.10" shape="511.95,518.35 528.05,518.35"/>
    </edge>
    <edge id=":n3_11" function="internal">
        <lane id=":n3_11_0" index="0" speed="30.00" length="15.64" shape="511.95,518.35 516.19,518.96 519.23,520.78 521.04,523.81 521.65,528.05"/>
    </edge>
    <edge id=":n4_0" function="internal">
        <lane id=":n4_0_0" index="0" speed="30.00" length="10.32" shape="768.35,528.05 767.95,525.25 766.75,523.25 764.75,522.05 761.95,521.65"/>
    </edge>
    <edge id=":n4_1" function="internal">
        <lane id=":n4_1_0" index="0" speed="30.00" length="16.10" shape="768.35,528.05 768.35,511.95"/>
    </edge>
    <edge id=":n4_2" function="internal">
        <lane id=":n4_2_0" index="0" speed="30.00" length="6.41" shape="768.35,528.05 768.96,523.81 770.05,521.98"/>
    </edge>
    <edge id=":n4_12" function="internal">
        <lane id=":n4_12_0" index="0" speed="30.00" length="9.23" shape="770.05,521.98 770.78,520.77 773.81,518.96 778.05,518.35"/>
    </edge>
    <edge id=":n4_3" function="internal">
        <lane id=":n4_3_0" index="0" speed="30.00" length="7.85" shape="778.05,521.65 776.69,522.05 775.73,523.25 775.14,525.25 774.95,528.05"/>
    </edge>
    <edge id=":n4_4" function="internal">
        <lane id=":n4_4_0" index="0" speed="30.00" length="16.10" shape="778.05,521.65 761.95,521.65"/>
    </edge>
    <edge id=":n4_5" function="internal">
        <lane id=":n4_5_0" index="0" speed="30.00" length="15.64" shape="778.05,521.65 773.81,521.04 770.77,519.22 768.96,516.19 768.35,511.95"/>
    </edge>
    <edge id=":n4_6" function="internal">
        <lane id=":n4_6_0" index="0" speed="30.00" length="10.32" shape="771.65,511.95 772.05,514.75 773.25,516.75 775.25,517.95 778.05,518.35"/>
    </edge>
    <edge id=":n4_7" function="internal">
        <lane id=":n4_7_0" index="0" speed="30.00" length="16.10" shape="771.65,511.95 771.65,528.05"/>
    </edge>
    <edge id=":n4_8" function="internal">
        <lane id=":n4_8_0" index="0" speed="30.00" length="6.41" shape="771.65,511.95 771.04,516.19 769.95,518.02"/>
    </edge>
    <edge id=":n4_13" function="internal">
        <lane id=":n4_13_0" index="0" speed="30.00" length="9.23" shape="769.95,518.02 769.22,519.23 766.19,521.04 761.95,521.65"/>
    </edge>
    <edge id=":n4_9" function="internal">
        <lane id=":n4_9_0" index="0" speed="30.00" length="10.32" shape="761.95,518.35 764.75,517.95 766.75,516.75 767.95,514.75 768.35,511.95"/>
    </edge>
    <edge id=":n4_10" function="internal">
        <lane id=":n4_10_0" index="0" speed="30.00" length="16.10" shape="761.95,518.35 778.05,518.35"/>
    </edge>
    <edge id=":n4_11" function="internal">
        <lane id=":n4_11_0" index="0" speed="30.00" length="15.64" shape="761.95,518.35 766.19,518.96 769.23,520.78 771.04,523.81 771.65,528.05"/>
    </edge>
    <edge id=":n5_0" function="internal">
        <lane id=":n5_0_0" index="0" speed="30.00" length="7.85" shape="1018.35,524.75 1017.95,523.39 1016.75,522.42 1014.75,521.84 1011.95,521.65"/>
    </edge>
    <edge id=":n5_1" function="internal">
        <lane id=":n5_1_0" index="0" speed="30.00" length="9.50" shape="1018.35,524.75 1018.35,515.25"/>
    </edge>
    <edge id=":n5_2" function="internal">
        <lane id=":n5_2_0" index="0" speed="30.00" length="9.50" shape="1021.65,515.25 1021.65,524.75"/>
    </edge>
    <edge id=":n5_3" function="internal">
        <lane id=":n5_3_0" index="0" speed="30.00" length="4.49" shape="1021.65,515.25 1021.04,518.05 1019.95,519.25"/>
    </edge>
    <edge id=":n5_6" function="internal">
        <lane id=":n5_6_0" index="0" speed="30.00" length="8.60" shape="1019.95,519.25 1019.22,520.05 1016.19,521.25 1011.95,521.65"/>
    </edge>
    <edge id=":n5_4" function="internal">
        <lane id=":n5_4_0" index="0" speed="30.00" length="5.00" shape="1011.95,518.35 1013.31,518.16 1014.27,517.58 1014.86,516.61 1015.05,515.25"/>
    </edge>
    <edge id=":n5_5" function="internal">
        <lane id=":n5_5_0" index="0" speed="30.00" length="13.09" shape="1011.95,518.35 1016.19,518.75 1019.23,519.95 1021.04,521.95 1021.65,524.75"/>
    </edge>
    <edge id=":n6_0" function="internal">
        <lane id=":n6_0_0" index="0" speed="30.00" length="10.32" shape="18.35,278.05 17.95,275.25 16.75,273.25 14.75,272.05 11.95,271.65"/>
    </edge>
    <edge id=":n6_1" function="internal">
        <lane id=":n6_1_0" index="0" speed="30.00" length="16.10" shape="18.35,278.05 18.35,261.95"/>
    </edge>
    <edge id=":n6_2" function="internal">
        <lane id=":n6_2_0" index="0" speed="30.00" length="6.41" shape="18.35,278.05 18.96,273.81 20.05,271.98"/>
    </edge>
    <edge id=":n6_12" function="internal">
        <lane id=":n6_12_0" index="0" speed="30.00" length="9.23" shape="20.05,271.98 20.77,270.77 23.81,268.96 28.05,268.35"/>
    </edge>
    <edge id=":n6_3" function="internal">
        <lane id=":n6_3_0" index="0" speed="30.00" length="10.32" shape="28.05,271.65 25.25,272.05 23.25,273.25 22.05,275.25 21.65,278.05"/>
    </edge>
    <edge id=":n6_4" function="internal">
        <lane id=":n6_4_0" index="0" speed="30.00" length="16.10" shape="28.05,271.65 11.95,271.65"/>
    </edge>
    <edge id=":n6_5" function="internal">
        <lane id=":n6_5_0" index="0" speed="30.00" length="15.64" shape="28.05,271.65 23.81,271.04 20.78,269.22 18.96,266.19 18.35,261.95"/>
    </edge>
    <edge id=":n6_6" function="internal">
        <lane id=":n6_6_0" index="0" speed="30.00" length="10.32" shape="21.65,261.95 22.05,264.75 23.25,266.75 25.25,267.95 28.05,268.35"/>
    </edge>
    <edge id=":n6_7" function="internal">
        <lane id=":n6_7_0" index="0" speed="30.00" length="16.10" shape="21.65,261.95 21.65,278.05"/>
    </edge>
    <edge id=":n6_8" function="internal">
        <lane id=":n6_8_0" index="0" speed="30.00" length="6.41" shape="21.65,261.95 21.04,266.19 19.95,268.02"/>
    </edge>
    <edge id=":n6_13" function="internal">
        <lane id=":n6_13_0" index="0" speed="30.00" length="9.23" shape="19.95,268.02 19.22,269.23 16.19,271.04 11.95,271.65"/>
    </edge>
    <edge id=":n6_9" function="internal">
        <lane id=":n6_9_0" index="0" speed="30.00" length="10.32" shape="11.95,268.35 14.75,267.95 16.75,266.75 17.95,264.75 18.35,261.95"/>
    </edge>
    <edge id=":n6_10" function="internal">
        <lane id=":n6_10_0" index="0" speed="30.00" length="16.10" shape="11.95,268.35 28.05,268.35"/>
    </edge>
    <edge id=":n6_11" function="internal">
        <lane id=":n6_11_0" index="0" speed="30.00" length="15.64" shape="11.95,268.35 16.19,268.96 19.22,270.78 21.04,273.81 21.65,278.05"/>
    </edge>
    <edge id=":n7_0" function="internal">
        <lane id=":n7_0_0" index="0" speed="40.00" length="13.09" shape="265.05,281.35 264.65,277.11 263.45,274.07 261.45,272.26 258.65,271.65"/>
    </edge>
    <edge id=":n7_1" function="internal">
        <lane id=":n7_1_0" index="0" speed="40.00" length="22.70" shape="268.35,281.35 268.35,258.65"/>
    </edge>
    <edge id=":n7_2" function="internal">
        <lane id=":n7_2_0" index="0" speed="40.00" length="7.47" shape="268.35,281.35 269.16,275.66 270.05,274.18"/>
    </edge>