<routes>
	<!-- Vehicles /-->
	<vType accel="1.0" decel="5.0" id="NormalVehicle" length="2.0" maxSpeed="2.5" sigma="0.0"  type="NormalVehicle"/>
	<vType accel="1.0" decel="5.0" id="JustKerbsVehicle" length="2.0" maxSpeed="2.5" sigma="0.0"  type="JustKerbsVehicle"/>
	<vType accel="1.0" decel="5.0" id="EmergencyVehicle" length="2.5" maxSpeed="3.0" sigma="0.0" type="EmergencyVehicle"/>
	<vType accel="1.0" decel="5.0" id="Bus" length="6" maxSpeed="1.1" sigma="0.0"/>
	<vType accel="1.0" decel="5.0" id="SlowVehicle" length="2" maxSpeed="0.2" sigma="0.0" type="SlowVehicle"/>
	<vType accel="1.0" decel="5.0" id="AccidentVehicle" length="2" maxSpeed="2" sigma="0.0" type="AccidentVehicles"/>
	<vType accel="1.0" decel="5.0" id="JustSirenEmergencyVehicle" length="2.5" maxSpeed="3.0" sigma="0.0" type="JustSirenEmergencyVehicle"/>

	<!-- Routes /-->
	
	<route id="left" edges="29to1 1to6 6to36"/>
	<route id="halfLeft" edges="36to6 6to11 11to31"/>
	<route id="right" edges="30to5 5to10 10to15 15to32"/>
	<route id="halfRight" edges="30to5 5to10 10to37"/>
	<route id="oppositeRight" edges="32to15 15to10 10to5 5to30"/>
	<route id="stop" edges="30to5 5to10 10to15 15to32"/>
	<route id="stopAoContrario" edges="32to15 15to10 10to5 5to30"/>
	<route id="anticlockLR" edges=" 32to15 15to10 10to5 5to4 4to3 3to2 2to1 1to6 6to11 11to12 12to13 13to14 14to15 15to32"/>
	<route id="anticlockUR" edges="30to5 5to4 4to3 3to2 2to1 1to6 6to11 11to12 12to13 13to14 14to15 15to10 10to5 5to30"/>
	<!--route id= "clockLL" edges=" 31to11 11to6 6to1 1to2 2to3 3to4 4to5 5to10 10to15 15to14 14to13 13to12 12to11 11to31"/-->
	
	<route id="estradaDeBaixoL2R" edges="31to11 11to12 12to13 13to14 14to15 15to32"/>
	<route id="estradaDeCimaL2R" edges="29to1 1to2 2to3 3to4 4to5 5to30"/>
	<route id="estradaDeCimaL2RRedux" edges="33to2 2to3 3to4 4to5 5to30"/>
	<route id="estradaDeCimaR2L" edges="30to5 5to4 4to3 3to2 2to1 1to29"/>

	<!-- Routes that cross traffic lights/-->
	<route id="sem1" edges="32to15 15to10 10to28 28to9 9to22 22to27 27to8 8to21 21to26 26to7 7to20 20to6 6to1 1to29"/>
	<route id="sem2" edges="30to5 5to10 10to28 28to9 9to18 18to4 4to3 3to17 17to8 8to21 21to26 26to7 7to16 16to2 2to1 1to29"/>
	<route id="sem3" edges="32to15 15to14 14to25 25to9 9to18 18to4 4to5 5to30"/>
	<route id="sem4" edges="32to15 15to14 14to13 13to24 24to8 8to17 17to3 3to4 4to5 5to30"/>
	<route id="sem5" edges="32to15 15to14 14to13"/>
	<route id="sem6" edges="31to11 11to12 12to23 23to7 7to26 26to21 21to8 8to17 17to3 3to4 4to5 5to30"/>
	<route id="sem7" edges="30to5 5to4 4to18 18to9 9to28 28to10 10to15 15to32"/>
	<route id="sem8" edges="31to11 11to6 6to20 20to7 7to23 23to12 12to13 13to24 24to8 8to17 17to3 3to2 2to16 16to7 7to20 20to6 6to1 1to29"/>
	<route id="sem9" edges="31to11 11to6 6to20 20to7 7to26 26to21 21to8 8to27 27to22 22to9 9to28 28to10 10to15 15to32"/>
	<route id="sem10" edges="29to1 1to2 2to16 16to7 7to26 26to21 21to8 8to24 24to13 13to14 14to15 15to32"/>
	<route id="sem11" edges="29to1 1to6 6to20 20to7 7to26 26to21 21to8 8to17 17to3 3to4 4to18 18to9 9to22 22to27 27to8 8to17 17to3 3to2 2to1 1to29"/>
	<route id="sem12" edges="29to1 1to6 6to20 20to7 7to26 26to21 21to8 8to17 17to3 3to4 4to18 18to9 9to28 28to10 10to15 15to32"/>
	<route id="sem13" edges="30to5 5to10 10to28 28to9 9to18 18to4 4to3 3to17 17to8 8to21 21to26 26to7 7to20 20to6 6to1 1to29"/>
	<route id="sem14" edges="30to5 5to10 10to28 28to9 9to18 18to4 4to3 3to17 17to8 8to21 21to26 26to7 7to23 23to12 12to11 11to31"/>
	<route id="sem15" edges="30to5 5to4 4to18 18to9 9to25 25to14 14to15 15to32"/>
	<!--route id="sem16" edges="30to5 5to4 4to3 3to17 17to8 8to24 24to13 13to12 12to23 23to7 7to20 20to6 6to1 1to29"/-->
	<route id="sem17" edges="30to5 5to10 10to28 28to9 9to18 18to4 4to3 3to17 17to8 8to27 27to22 22to9 9to28 28to10 10to5 5to30"/>
	
	<route id="sem18" edges="36to6 6to20 20to7 7to26 26to21 21to8 8to17 17to3 3to4 4to5 5to30"/>
	<route id="sem19" edges="36to6 6to20 20to7 7to23 23to12 12to13 13to14 14to15 15to32"/>
	<route id="sem20" edges="33to2 2to16 16to7 7to23 23to12 12to11 11to31"/>
	<route id="sem21" edges="33to2 2to16 16to7 7to20 20to6 6to1 1to29"/>
	<route id="sem22" edges="38to12 12to23 23to7 7to16 16to2 2to1 1to29"/>
	<route id="sem23" edges="38to12 12to23 23to7 7to26 26to21 21to8 8to17 17to3 3to4 4to5 5to30"/>
	<route id="sem24" edges="34to3 3to17 17to8 8to21 21to26 26to7 7to16 16to2 2to1 1to29"/>
	<route id="sem25" edges="34to3 3to17 17to8 8to21 21to26 26to7 7to23 23to12 12to11 11to31"/>
	<route id="sem26" edges="34to3 3to17 17to8 8to24 24to13 13to39"/>
	<route id="sem27" edges="34to3 3to17 17to8 8to21 21to26 26to7 7to16 16to2 2to33"/>
	<route id="sem28" edges="39to13 13to24 24to8 8to17 17to3 3to34"/>
	<route id="sem29" edges="39to13 13to24 24to8 8to27 27to22 22to9 9to18 18to4 4to35"/>
	<route id="sem30" edges="37to10 10to28 28to9 9to25 25to14 14to40"/>
	<route id="sem31" edges="37to10 10to28 28to9 9to18 18to4 4to35"/>
	<route id="sem32" edges="35to4 4to18 18to9 9to28 28to10 10to37"/>
	<route id="sem33" edges="40to14 14to25 25to9 9to18 18to4 4to35"/>
	<!--route id="novoAcidente" edges="33to3 3to17 17to8 8to24 24to13 13to14 14to15 15to32"/-->
	
	<!-- Traffic Routes/-->	
	<route id="transito" edges="39to13 13to14 14to40"/>
	<route id="transitoContrario" edges=" 40to14 14to13 13to39"/>

	<route id="Ambulance" edges="29to1 1to6 6to11 11to12 12to13 13to14 14to15 15to32"/>	
	<!-- Accidents /-->	
	<route id="routeAcidentada1" edges ="38to12 12to13"/>
	<route id="routeAcidentada2" edges ="40to14 14to15"/>

	<route id="penduloEsquerda" edges ="34to3 3to4 4to35"/>
	<route id="penduloDireita" edges ="34to3 3to2 2to33"/>



	<!-- Vehicle Behaviour /-->

	<!--transito -->
	<vehicle depart="0" id="6" route="transito" type="SlowVehicle"/>
	<vehicle depart="0" id="7" route="transito" type="SlowVehicle"/>
	<vehicle depart="0" id="8" route="transito" type="SlowVehicle"/>
	<vehicle depart="0" id="9" route="transito" type="SlowVehicle"/>
	<!--vehicle depart="0" id="10" route="transito" type="SlowVehicle"/-->
	<vehicle depart="0" id="11" route="transitoContrario" type="SlowVehicle"/>
	<vehicle depart="0" id="12" route="transitoContrario" type="SlowVehicle"/>
	<vehicle depart="0" id="13" route="transitoContrario" type="SlowVehicle"/>
	<vehicle depart="0" id="14" route="transitoContrario" type="SlowVehicle"/>
	<!--vehicle depart="0" id="15" route="transitoContrario" type="SlowVehicle"/-->

	<vehicle depart="10" id="50" route="estradaDeCimaL2RRedux" type="JustKerbsVehicle"/>
	<vehicle depart="10" id="51" route="estradaDeCimaL2RRedux" type="JustKerbsVehicle"/>
	<vehicle depart="10" id="52" route="estradaDeCimaL2RRedux" type="JustKerbsVehicle"/>
	<vehicle depart="10" id="53" route="estradaDeCimaL2RRedux" type="JustKerbsVehicle"/>
	<vehicle depart="10" id="54" route="estradaDeCimaL2RRedux" type="JustKerbsVehicle"/>
	<vehicle depart="10" id="55" route="estradaDeCimaL2RRedux" type="JustKerbsVehicle"/>

	<vehicle depart="10" id="56" route="estradaDeCimaR2L" type="JustKerbsVehicle"/>
	<vehicle depart="10" id="57" route="estradaDeCimaR2L" type="JustKerbsVehicle"/>
	<vehicle depart="10" id="58" route="estradaDeCimaR2L" type="JustKerbsVehicle"/>
	<vehicle depart="10" id="59" route="estradaDeCimaR2L" type="JustKerbsVehicle"/>
	<vehicle depart="10" id="60" route="estradaDeCimaR2L" type="JustKerbsVehicle"/>
	<vehicle depart="10" id="61" route="estradaDeCimaR2L" type="JustKerbsVehicle"/>


	<vehicle depart="10" id="45" route="transito" type="JustKerbsVehicle"/>
	<vehicle depart="10" id="47" route="transitoContrario" type="JustKerbsVehicle"/>
	<vehicle depart="10" id="48" route="transito" type="JustKerbsVehicle"/>
	<vehicle depart="10" id="49" route="transitoContrario" type="JustKerbsVehicle"/>

	<vehicle depart="10" id="20" route="left" type="Bus"/>
	<vehicle depart="25" id="22" route="left" type="NormalVehicle"/>
	<vehicle depart="26" id="23" route="left" type="NormalVehicle"/>
	<vehicle depart="27" id="24" route="left" type="NormalVehicle"/>
	<vehicle depart="28" id="25" route="halfLeft" type="Bus"/>	
	<!--vehicle depart="3" id="2" route="routeAcidentada1" type="AccidentVehicle"/-->
	<vehicle depart="81" id="1" route="Ambulance" type="EmergencyVehicle"/>
	

	<vehicle depart="120" id="44" route="sem24" type="NormalVehicle"/>
	<vehicle depart="120" id="46" route="sem25" type="NormalVehicle"/>
	

	<vehicle depart="120" id="3" route="routeAcidentada1" type="AccidentVehicle"/>


	<vehicle depart="200" id="62" route="estradaDeCimaL2R" type="JustKerbsVehicle"/>
	<vehicle depart="200" id="63" route="estradaDeCimaL2R" type="JustKerbsVehicle"/>
	<vehicle depart="200" id="64" route="estradaDeCimaL2R" type="JustKerbsVehicle"/>
	<vehicle depart="200" id="65" route="estradaDeCimaL2R" type="JustKerbsVehicle"/>
	<vehicle depart="200" id="66" route="estradaDeCimaL2R" type="JustKerbsVehicle"/>
	<vehicle depart="200" id="67" route="estradaDeCimaL2R" type="JustKerbsVehicle"/>

	<vehicle depart="200" id="68" route="estradaDeCimaR2L" type="JustKerbsVehicle"/>
	<vehicle depart="200" id="69" route="estradaDeCimaR2L" type="JustKerbsVehicle"/>
	<vehicle depart="200" id="70" route="estradaDeCimaR2L" type="JustKerbsVehicle"/>
	<vehicle depart="200" id="71" route="estradaDeCimaR2L" type="JustKerbsVehicle"/>
	<vehicle depart="200" id="72" route="estradaDeCimaR2L" type="JustKerbsVehicle"/>
	<vehicle depart="200" id="73" route="estradaDeCimaR2L" type="JustKerbsVehicle"/>


	<vehicle depart="280" id="29" route="sem18" type="NormalVehicle"/>
	<vehicle depart="280" id="30" route="sem18" type="NormalVehicle"/>
	<vehicle depart="280" id="32" route="sem19" type="NormalVehicle"/>
	<vehicle depart="280" id="33" route="sem19" type="NormalVehicle"/>
	<vehicle depart="280" id="35" route="sem20" type="NormalVehicle"/>
	<vehicle depart="280" id="36" route="sem20" type="NormalVehicle"/>
	<vehicle depart="280" id="38" route="sem21" type="NormalVehicle"/>
	<vehicle depart="280" id="39" route="sem21" type="NormalVehicle"/>	
	<vehicle depart="280" id="40" route="sem22" type="NormalVehicle"/>
	<vehicle depart="280" id="42" route="sem22" type="NormalVehicle"/>	
	<vehicle depart="280" id="43" route="sem23" type="NormalVehicle"/>


	<vehicle depart="299" id="5" route="transito" type="Bus"/>

	<vehicle depart="410" id="84" route="sem26" type="NormalVehicle"/>
	<vehicle depart="410" id="85" route="sem27" type="NormalVehicle"/>
	<!--vehicle depart="410" id="86" route="sem28" type="NormalVehicle"/>
	<vehicle depart="410" id="87" route="sem29" type="NormalVehicle"/-->


	<vehicle depart="450" id="19" route="routeAcidentada2" type="AccidentVehicle"/>

	<!--Stop sign /-->
	<vehicle depart="470" id="26" route="right" type="NormalVehicle"/>

	<!-- Filler Episode /-->
	<vehicle depart="470" id="74" route="penduloDireita" type="JustKerbsVehicle"/>
	<vehicle depart="470" id="75" route="penduloDireita" type="JustKerbsVehicle"/>
	<vehicle depart="470" id="76" route="penduloDireita" type="JustKerbsVehicle"/>
	<vehicle depart="470" id="77" route="penduloDireita" type="JustKerbsVehicle"/>
	<vehicle depart="470" id="78" route="penduloDireita" type="JustKerbsVehicle"/>

	<vehicle depart="470" id="79" route="penduloEsquerda" type="JustKerbsVehicle"/>
	<vehicle depart="470" id="80" route="penduloEsquerda" type="JustKerbsVehicle"/>
	<vehicle depart="470" id="81" route="penduloEsquerda" type="JustKerbsVehicle"/>
	<!--vehicle depart="470" id="82" route="penduloEsquerda" type="JustKerbsVehicle"/>
	<vehicle depart="470" id="83" route="penduloEsquerda" type="JustKerbsVehicle"/-->

	<vehicle depart="490" id="88" route="sem30" type="NormalVehicle"/>
	<vehicle depart="490" id="89" route="sem31" type="NormalVehicle"/>
	<vehicle depart="490" id="90" route="sem32" type="NormalVehicle"/>
	<vehicle depart="490" id="91" route="sem33" type="NormalVehicle"/>

	<vehicle depart="538" id="28" route="oppositeRight" type="NormalVehicle"/>
	<vehicle depart="538" id="27" route="right" type="NormalVehicle"/>
	
</routes>