<?xml version="1.0" encoding="UTF-8"?>

<!-- generated on 17/09/2019 18:13:51 by Netedit Version 0.32.0
<?xml version="1.0" encoding="UTF-8"?>

<configuration xmlns:xsi="http://www.w3.org/2001/XMLSchema-instance" xsi:noNamespaceSchemaLocation="http://sumo.dlr.de/xsd/netconvertConfiguration.xsd">

    <input>
        <sumo-net-file value="C:\Users\PEB2BRG\src\veins-4.7.1\examples\veins\tests.net.xml"/>
    </input>

    <output>
        <output-file value="C:\Users\PEB2BRG\src\veins-4.7.1\examples\veins\tests.net.xml"/>
    </output>

    <processing>
        <no-turnarounds value="true"/>
        <offset.disable-normalization value="true"/>
        <lefthand value="false"/>
        <junctions.corner-detail value="0"/>
        <rectangular-lane-cut value="false"/>
        <walkingareas value="false"/>
    </processing>

    <visualisation>
        <registry-viewport value="true"/>
    </visualisation>

</configuration>
-->

<net version="0.27" xmlns:xsi="http://www.w3.org/2001/XMLSchema-instance" xsi:noNamespaceSchemaLocation="http://sumo.dlr.de/xsd/net_file.xsd">

    <location netOffset="20.00,20.00" convBoundary="0.00,0.00,1790.00,1290.00" origBoundary="-20.00,-20.00,1770.00,1270.00" projParameter="!"/>

    <type id="1L30" priority="1" numLanes="1" speed="30.00"/>
    <type id="1L50" priority="1" numLanes="1" speed="50.00"/>
    <type id="1L90" priority="1" numLanes="1" speed="90.00"/>
    <type id="2L30" priority="1" numLanes="2" speed="30.00"/>
    <type id="2L50" priority="1" numLanes="2" speed="50.00"/>
    <type id="2L90" priority="1" numLanes="2" speed="90.00"/>
    <type id="3L30" priority="1" numLanes="3" speed="30.00"/>

    <edge id=":n1_0" function="internal">
        <lane id=":n1_0_0" index="0" speed="30.00" length="16.10" shape="18.35,1278.05 18.35,1261.95"/>
    </edge>
    <edge id=":n1_1" function="internal">
        <lane id=":n1_1_0" index="0" speed="30.00" length="6.41" shape="18.35,1278.05 18.96,1273.81 20.05,1271.98"/>
    </edge>
    <edge id=":n1_6" function="internal">
        <lane id=":n1_6_0" index="0" speed="30.00" length="9.23" shape="20.05,1271.98 20.77,1270.78 23.81,1268.96 28.05,1268.35"/>
    </edge>
    <edge id=":n1_2" function="internal">
        <lane id=":n1_2_0" index="0" speed="30.00" length="10.32" shape="28.05,1271.65 25.25,1272.05 23.25,1273.25 22.05,1275.25 21.65,1278.05"/>
    </edge>
    <edge id=":n1_3" function="internal">
        <lane id=":n1_3_0" index="0" speed="30.00" length="15.64" shape="28.05,1271.65 23.81,1271.04 20.78,1269.23 18.96,1266.19 18.35,1261.95"/>
    </edge>
    <edge id=":n1_4" function="internal">
        <lane id=":n1_4_0" index="0" speed="30.00" length="10.32" shape="21.65,1261.95 22.05,1264.75 23.25,1266.75 25.25,1267.95 28.05,1268.35"/>
    </edge>
    <edge id=":n1_5" function="internal">
        <lane id=":n1_5_0" index="0" speed="30.00" length="16.10" shape="21.65,1261.95 21.65,1278.05"/>
    </edge>
    <edge id=":n10_0" function="internal">
        <lane id=":n10_0_0" index="0" speed="30.00" length="13.09" shape="265.05,1031.35 264.65,1027.11 263.45,1024.07 261.45,1022.26 258.65,1021.65"/>
    </edge>
    <edge id=":n10_1" function="internal">
        <lane id=":n10_1_0" index="0" speed="30.00" length="22.70" shape="268.35,1031.35 268.35,1008.65"/>
    </edge>
    <edge id=":n10_2" function="internal">
        <lane id=":n10_2_0" index="0" speed="30.00" length="7.47" shape="268.35,1031.35 269.16,1025.66 270.05,1024.18"/>
    </edge>
    <edge id=":n10_12" function="internal">
        <lane id=":n10_12_0" index="0" speed="30.00" length="13.50" shape="270.05,1024.18 271.60,1021.60 275.66,1019.16 281.35,1018.35"/>
    </edge>
    <edge id=":n10_3" function="internal">
        <lane id=":n10_3_0" index="0" speed="30.00" length="13.09" shape="281.35,1024.95 277.11,1025.35 274.07,1026.55 272.26,1028.55 271.65,1031.35"/>
    </edge>
    <edge id=":n10_4" function="internal">
        <lane id=":n10_4_0" index="0" speed="30.00" length="22.70" shape="281.35,1021.65 258.65,1021.65"/>
    </edge>
    <edge id=":n10_5" function="internal">
        <lane id=":n10_5_0" index="0" speed="30.00" length="7.47" shape="281.35,1021.65 275.66,1020.84 274.18,1019.95"/>
    </edge>
    <edge id=":n10_13" function="internal">
        <lane id=":n10_13_0" index="0" speed="30.00" length="13.50" shape="274.18,1019.95 271.60,1018.40 269.16,1014.34 268.35,1008.65"/>
    </edge>
    <edge id=":n10_6" function="internal">
        <lane id=":n10_6_0" index="0" speed="30.00" length="13.09" shape="274.95,1008.65 275.35,1012.89 276.55,1015.93 278.55,1017.74 281.35,1018.35"/>
    </edge>
    <edge id=":n10_7" function="internal">
        <lane id=":n10_7_0" index="0" speed="30.00" length="22.70" shape="271.65,1008.65 271.65,1031.35"/>
    </edge>
    <edge id=":n10_8" function="internal">
        <lane id=":n10_8_0" index="0" speed="30.00" length="7.47" shape="271.65,1008.65 270.84,1014.34 269.95,1015.82"/>
    </edge>
    <edge id=":n10_14" function="internal">
        <lane id=":n10_14_0" index="0" speed="30.00" length="13.50" shape="269.95,1015.82 268.40,1018.40 264.34,1020.84 258.65,1021.65"/>
    </edge>
    <edge id=":n10_9" function="internal">
        <lane id=":n10_9_0" index="0" speed="30.00" length="13.09" shape="258.65,1015.05 262.89,1014.65 265.93,1013.45 267.74,1011.45 268.35,1008.65"/>
    </edge>
    <edge id=":n10_10" function="internal">
        <lane id=":n10_10_0" index="0" speed="30.00" length="22.70" shape="258.65,1018.35 281.35,1018.35"/>
    </edge>
    <edge id=":n10_11" function="internal">
        <lane id=":n10_11_0" index="0" speed="30.00" length="7.47" shape="258.65,1018.35 264.34,1019.16 265.82,1020.05"/>
    </edge>
    <edge id=":n10_15" function="internal">
        <lane id=":n10_15_0" index="0" speed="30.00" length="13.50" shape="265.82,1020.05 268.40,1021.60 270.84,1025.66 271.65,1031.35"/>
    </edge>
    <edge id=":n100_0" function="internal">
        <lane id=":n100_0_0" index="0" speed="30.00" length="3.73" shape="1018.35,571.50 1015.05,568.50"/>
        <lane id=":n100_0_1" index="1" speed="30.00" length="3.73" shape="1018.35,571.50 1018.35,568.50"/>
    </edge>
    <edge id=":n100_2" function="internal">
        <lane id=":n100_2_0" index="0" speed="30.00" length="3.00" shape="1021.65,568.50 1021.65,571.50"/>
    </edge>
    <edge id=":n101_0" function="internal">
        <lane id=":n101_0_0" index="0" speed="30.00" length="3.73" shape="1268.35,571.50 1265.05,568.50"/>
        <lane id=":n101_0_1" index="1" speed="30.00" length="3.73" shape="1268.35,571.50 1268.35,568.50"/>
    </edge>
    <edge id=":n101_2" function="internal">
        <lane id=":n101_2_0" index="0" speed="30.00" length="3.00" shape="1271.65,568.50 1271.65,571.50"/>
    </edge>
    <edge id=":n102_0" function="internal">
        <lane id=":n102_0_0" index="0" speed="30.00" length="4.90" shape="1518.35,571.50 1511.75,568.50"/>
        <lane id=":n102_0_1" index="1" speed="30.00" length="4.90" shape="1518.35,571.50 1515.05,568.50"/>
        <lane id=":n102_0_2" index="2" speed="30.00" length="4.90" shape="1518.35,571.50 1518.35,568.50"/>
    </edge>
    <edge id=":n102_3" function="internal">
        <lane id=":n102_3_0" index="0" speed="30.00" length="3.00" shape="1521.65,568.50 1521.65,571.50"/>
    </edge>
    <edge id=":n103_0" function="internal">
        <lane id=":n103_0_0" index="0" speed="30.00" length="3.00" shape="221.50,521.65 218.50,521.65"/>
    </edge>
    <edge id=":n103_1" function="internal">
        <lane id=":n103_1_0" index="0" speed="30.00" length="3.73" shape="218.50,518.35 221.50,515.05"/>
        <lane id=":n103_1_1" index="1" speed="30.00" length="3.73" shape="218.50,518.35 221.50,518.35"/>
    </edge>
    <edge id=":n104_0" function="internal">
        <lane id=":n104_0_0" index="0" speed="30.00" length="3.73" shape="321.50,521.65 318.50,524.95"/>
        <lane id=":n104_0_1" index="1" speed="30.00" length="3.73" shape="321.50,521.65 318.50,521.65"/>
    </edge>
    <edge id=":n104_2" function="internal">
        <lane id=":n104_2_0" index="0" speed="30.00" length="3.00" shape="318.50,518.35 321.50,518.35"/>
    </edge>
    <edge id=":n105_0" function="internal">
        <lane id=":n105_0_0" index="0" speed="30.00" length="3.00" shape="471.50,521.65 468.50,521.65"/>
    </edge>
    <edge id=":n105_1" function="internal">
        <lane id=":n105_1_0" index="0" speed="30.00" length="3.73" shape="468.50,518.35 471.50,515.05"/>
        <lane id=":n105_1_1" index="1" speed="30.00" length="3.73" shape="468.50,518.35 471.50,518.35"/>
    </edge>
    <edge id=":n106_0" function="internal">
        <lane id=":n106_0_0" index="0" speed="30.00" length="3.73" shape="571.50,521.65 568.50,524.95"/>
        <lane id=":n106_0_1" index="1" speed="30.00" length="3.73" shape="571.50,521.65 568.50,521.65"/>
    </edge>
    <edge id=":n106_2" function="internal">
        <lane id=":n106_2_0" index="0" speed="30.00" length="3.00" shape="568.50,518.35 571.50,518.35"/>
    </edge>
    <edge id=":n107_0" function="internal">
        <lane id=":n107_0_0" index="0" speed="30.00" length="3.00" shape="721.50,521.65 718.50,521.65"/>
    </edge>
    <edge id=":n107_1" function="internal">
        <lane id=":n107_1_0" index="0" speed="30.00" length="3.73" shape="718.50,518.35 721.50,515.05"/>
        <lane id=":n107_1_1" index="1" speed="30.00" length="3.73" shape="718.50,518.35 721.50,518.35"/>
    </edge>
    <edge id=":n108_0" function="internal">
        <lane id=":n108_0_0" index="0" speed="30.00" length="3.73" shape="821.50,521.65 818.50,524.95"/>
        <lane id=":n108_0_1" index="1" speed="30.00" length="3.73" shape="821.50,521.65 818.50,521.65"/>
    </edge>
    <edge id=":n108_2" function="internal">
        <lane id=":n108_2_0" index="0" speed="30.00" length="3.00" shape="818.50,518.35 821.50,518.35"/>
    </edge>
    <edge id=":n109_0" function="internal">
        <lane id=":n109_0_0" index="0" speed="30.00" length="3.00" shape="971.50,521.65 968.50,521.65"/>
    </edge>
    <edge id=":n109_1" function="internal">
        <lane id=":n109_1_0" index="0" speed="30.00" length="3.73" shape="968.50,518.35 971.50,515.05"/>
        <lane id=":n109_1_1" index="1" speed="30.00" length="3.73" shape="968.50,518.35 971.50,518.35"/>
    </edge>
    <edge id=":n11_0" function="internal">
        <lane id=":n11_0_0" index="0" speed="30.00" length="13.09" shape="515.05,1031.35 514.65,1027.11 513.45,1024.07 511.45,1022.26 508.65,1021.65"/>
    </edge>
    <edge id=":n11_1" function="internal">
        <lane id=":n11_1_0" index="0" speed="30.00" length="22.70" shape="518.35,1031.35 518.35,1008.65"/>
    </edge>
    <edge id=":n11_2" function="internal">
        <lane id=":n11_2_0" index="0" speed="30.00" length="7.47" shape="518.35,1031.35 519.16,1025.66 520.05,1024.18"/>
    </edge>
    <edge id=":n11_12" function="internal">
        <lane id=":n11_12_0" index="0" speed="30.00" length="13.50" shape="520.05,1024.18 521.60,1021.60 525.66,1019.16 531.35,1018.35"/>
    </edge>
    <edge id=":n11_3" function="internal">
        <lane id=":n11_3_0" index="0" speed="30.00" length="13.09" shape="531.35,1024.95 527.11,1025.35 524.08,1026.55 522.26,1028.55 521.65,1031.35"/>
    </edge>
    <edge id=":n11_4" function="internal">
        <lane id=":n11_4_0" index="0" speed="30.00" length="22.70" shape="531.35,1021.65 508.65,1021.65"/>
    </edge>
    <edge id=":n11_5" function="internal">
        <lane id=":n11_5_0" index="0" speed="30.00" length="7.47" shape="531.35,1021.65 525.66,1020.84 524.18,1019.95"/>
    </edge>
    <edge id=":n11_13" function="internal">
        <lane id=":n11_13_0" index="0" speed="30.00" length="13.50" shape="524.18,1019.95 521.60,1018.40 519.16,1014.34 518.35,1008.65"/>
    </edge>
    <edge id=":n11_6" function="internal">
        <lane id=":n11_6_0" index="0" speed="30.00" length="13.09" shape="524.95,1008.65 525.35,1012.89 526.55,1015.93 528.55,1017.74 531.35,1018.35"/>
    </edge>
    <edge id=":n11_7" function="internal">
        <lane id=":n11_7_0" index="0" speed="30.00" length="22.70" shape="521.65,1008.65 521.65,1031.35"/>
    </edge>
    <edge id=":n11_8" function="internal">
        <lane id=":n11_8_0" index="0" speed="30.00" length="7.47" shape="521.65,1008.65 520.84,1014.34 519.95,1015.82"/>
    </edge>
    <edge id=":n11_14" function="internal">
        <lane id=":n11_14_0" index="0" speed="30.00" length="13.50" shape="519.95,1015.82 518.40,1018.40 514.34,1020.84 508.65,1021.65"/>
    </edge>
    <edge id=":n11_9" function="internal">
        <lane id=":n11_9_0" index="0" speed="30.00" length="13.09" shape="508.65,1015.05 512.89,1014.65 515.92,1013.45 517.74,1011.45 518.35,1008.65"/>
    </edge>
    <edge id=":n11_10" function="internal">
        <lane id=":n11_10_0" index="0" speed="30.00" length="22.70" shape="508.65,1018.35 531.35,1018.35"/>
    </edge>
    <edge id=":n11_11" function="internal">
        <lane id=":n11_11_0" index="0" speed="30.00" length="7.47" shape="508.65,1018.35 514.34,1019.16 515.82,1020.05"/>
    </edge>
    <edge id=":n11_15" function="internal">
        <lane id=":n11_15_0" index="0" speed="30.00" length="13.50" shape="515.82,1020.05 518.40,1021.60 520.84,1025.66 521.65,1031.35"/>
    </edge>
    <edge id=":n110_0" function="internal">
        <lane id=":n110_0_0" index="0" speed="30.00" length="3.00" shape="1068.50,518.35 1071.50,518.35"/>
    </edge>
    <edge id=":n111_0" function="internal">
        <lane id=":n111_0_0" index="0" speed="30.00" length="3.73" shape="1218.50,518.35 1221.50,515.05"/>
        <lane id=":n111_0_1" index="1" speed="30.00" length="3.73" shape="1218.50,518.35 1221.50,518.35"/>
    </edge>
    <edge id=":n112_0" function="internal">
        <lane id=":n112_0_0" index="0" speed="30.00" length="3.97" shape="1321.50,524.95 1318.50,528.25"/>
        <lane id=":n112_0_1" index="1" speed="30.00" length="3.97" shape="1321.50,521.65 1318.50,524.95"/>
        <lane id=":n112_0_2" index="2" speed="30.00" length="3.97" shape="1321.50,521.65 1318.50,521.65"/>
    </edge>
    <edge id=":n112_3" function="internal">
        <lane id=":n112_3_0" index="0" speed="30.00" length="2.41" shape="1321.50,521.65 1320.26,520.82 1319.85,520.00"/>
    </edge>
    <edge id=":n112_7" function="internal">
        <lane id=":n112_7_0" index="0" speed="30.00" length="2.41" shape="1319.85,520.00 1320.26,519.18 1321.50,518.35"/>
    </edge>
    <edge id=":n112_4" function="internal">
        <lane id=":n112_4_0" index="0" speed="30.00" length="3.00" shape="1318.50,515.05 1321.50,515.05"/>
        <lane id=":n112_4_1" index="1" speed="30.00" length="3.00" shape="1318.50,518.35 1321.50,518.35"/>
    </edge>
    <edge id=":n112_6" function="internal">
        <lane id=":n112_6_0" index="0" speed="30.00" length="2.41" shape="1318.50,518.35 1319.74,519.18 1320.15,520.00"/>
    </edge>
    <edge id=":n112_8" function="internal">
        <lane id=":n112_8_0" index="0" speed="30.00" length="2.41" shape="1320.15,520.00 1319.74,520.82 1318.50,521.65"/>
    </edge>
    <edge id=":n113_0" function="internal">
        <lane id=":n113_0_0" index="0" speed="30.00" length="3.00" shape="1471.50,521.65 1468.50,521.65"/>
    </edge>
    <edge id=":n113_1" function="internal">
        <lane id=":n113_1_0" index="0" speed="30.00" length="3.73" shape="1468.50,518.35 1471.50,515.05"/>
        <lane id=":n113_1_1" index="1" speed="30.00" length="3.73" shape="1468.50,518.35 1471.50,518.35"/>
    </edge>
    <edge id=":n114_0" function="internal">
        <lane id=":n114_0_0" index="0" speed="30.00" length="3.73" shape="1571.50,521.65 1568.50,524.95"/>
        <lane id=":n114_0_1" index="1" speed="30.00" length="3.73" shape="1571.50,521.65 1568.50,521.65"/>
    </edge>
    <edge id=":n114_2" function="internal">
        <lane id=":n114_2_0" index="0" speed="30.00" length="3.00" shape="1568.50,518.35 1571.50,518.35"/>
    </edge>
    <edge id=":n115_0" function="internal">
        <lane id=":n115_0_0" index="0" speed="30.00" length="3.00" shape="268.35,471.50 268.35,468.50"/>
    </edge>
    <edge id=":n115_1" function="internal">
        <lane id=":n115_1_0" index="0" speed="30.00" length="3.73" shape="271.65,468.50 274.95,471.50"/>
        <lane id=":n115_1_1" index="1" speed="30.00" length="3.73" shape="271.65,468.50 271.65,471.50"/>
    </edge>
    <edge id=":n116_0" function="internal">
        <lane id=":n116_0_0" index="0" speed="30.00" length="3.00" shape="518.35,471.50 518.35,468.50"/>
    </edge>
    <edge id=":n116_1" function="internal">
        <lane id=":n116_1_0" index="0" speed="30.00" length="3.73" shape="521.65,468.50 524.95,471.50"/>
        <lane id=":n116_1_1" index="1" speed="30.00" length="3.73" shape="521.65,468.50 521.65,471.50"/>
    </edge>
    <edge id=":n117_0" function="internal">
        <lane id=":n117_0_0" index="0" speed="30.00" length="3.00" shape="768.35,471.50 768.35,468.50"/>
    </edge>
    <edge id=":n117_1" function="internal">
        <lane id=":n117_1_0" index="0" speed="30.00" length="3.73" shape="771.65,468.50 774.95,471.50"/>
        <lane id=":n117_1_1" index="1" speed="30.00" length="3.73" shape="771.65,468.50 771.65,471.50"/>
    </edge>
    <edge id=":n118_0" function="internal">
        <lane id=":n118_0_0" index="0" speed="30.00" length="3.00" shape="1018.35,471.50 1018.35,468.50"/>
    </edge>
    <edge id=":n118_1" function="internal">
        <lane id=":n118_1_0" index="0" speed="30.00" length="3.73" shape="1021.65,468.50 1024.95,471.50"/>
        <lane id=":n118_1_1" index="1" speed="30.00" length="3.73" shape="1021.65,468.50 1021.65,471.50"/>
    </edge>
    <edge id=":n119_0" function="internal">
        <lane id=":n119_0_0" index="0" speed="30.00" length="3.00" shape="1268.35,471.50 1268.35,468.50"/>
    </edge>
    <edge id=":n119_1" function="internal">
        <lane id=":n119_1_0" index="0" speed="30.00" length="3.73" shape="1271.65,468.50 1274.95,471.50"/>
        <lane id=":n119_1_1" index="1" speed="30.00" length="3.73" shape="1271.65,468.50 1271.65,471.50"/>
    </edge>
    <edge id=":n12_0" function="internal">
        <lane id=":n12_0_0" index="0" speed="30.00" length="13.09" shape="765.05,1031.35 764.65,1027.11 763.45,1024.07 761.45,1022.26 758.65,1021.65"/>
    </edge>
    <edge id=":n12_1" function="internal">
        <lane id=":n12_1_0" index="0" speed="30.00" length="22.70" shape="768.35,1031.35 768.35,1008.65"/>
    </edge>
    <edge id=":n12_2" function="internal">
        <lane id=":n12_2_0" index="0" speed="30.00" length="7.47" shape="768.35,1031.35 769.16,1025.66 770.05,1024.18"/>
    </edge>
    <edge id=":n12_12" function="internal">
        <lane id=":n12_12_0" index="0" speed="30.00" length="13.50" shape="770.05,1024.18 771.60,1021.60 775.66,1019.16 781.35,1018.35"/>
    </edge>
    <edge id=":n12_3" function="internal">
        <lane id=":n12_3_0" index="0" speed="30.00" length="13.09" shape="781.35,1024.95 777.11,1025.35 774.08,1026.55 772.26,1028.55 771.65,1031.35"/>
    </edge>
    <edge id=":n12_4" function="internal">
        <lane id=":n12_4_0" index="0" speed="30.00" length="22.70" shape="781.35,1021.65 758.65,1021.65"/>
    </edge>
    <edge id=":n12_5" function="internal">
        <lane id=":n12_5_0" index="0" speed="30.00" length="7.47" shape="781.35,1021.65 775.66,1020.84 774.18,1019.95"/>
    </edge>
    <edge id=":n12_13" function="internal">
        <lane id=":n12_13_0" index="0" speed="30.00" length="13.50" shape="774.18,1019.95 771.60,1018.40 769.16,1014.34 768.35,1008.65"/>
    </edge>
    <edge id=":n12_6" function="internal">
        <lane id=":n12_6_0" index="0" speed="30.00" length="13.09" shape="774.95,1008.65 775.35,1012.89 776.55,1015.93 778.55,1017.74 781.35,1018.35"/>
    </edge>
    <edge id=":n12_7" function="internal">
        <lane id=":n12_7_0" index="0" speed="30.00" length="22.70" shape="771.65,1008.65 771.65,1031.35"/>
    </edge>
    <edge id=":n12_8" function="internal">
        <lane id=":n12_8_0" index="0" speed="30.00" length="7.47" shape="771.65,1008.65 770.84,1014.34 769.95,1015.82"/>
    </edge>
    <edge id=":n12_14" function="internal">
        <lane id=":n12_14_0" index="0" speed="30.00" length="13.50" shape="769.95,1015.82 768.40,1018.40 764.34,1020.84 758.65,1021.65"/>
    </edge>
    <edge id=":n12_9" function="internal">
        <lane id=":n12_9_0" index="0" speed="30.00" length="13.09" shape="758.65,1015.05 762.89,1014.65 765.92,1013.45 767.74,1011.45 768.35,1008.65"/>
    </edge>
    <edge id=":n12_10" function="internal">
        <lane id=":n12_10_0" index="0" speed="30.00" length="22.70" shape="758.65,1018.35 781.35,1018.35"/>
    </edge>
    <edge id=":n12_11" function="internal">
        <lane id=":n12_11_0" index="0" speed="30.00" length="7.47" shape="758.65,1018.35 764.34,1019.16 765.82,1020.05"/>
    </edge>
    <edge id=":n12_15" function="internal">
        <lane id=":n12_15_0" index="0" speed="30.00" length="13.50" shape="765.82,1020.05 768.40,1021.60 770.84,1025.66 771.65,1031.35"/>
    </edge>
    <edge id=":n120_0" function="internal">
        <lane id=":n120_0_0" index="0" speed="30.00" length="3.00" shape="1518.35,471.50 1518.35,468.50"/>
    </edge>
    <edge id=":n120_1" function="internal">
        <lane id=":n120_1_0" index="0" speed="30.00" length="3.73" shape="1521.65,468.50 1524.95,471.50"/>
        <lane id=":n120_1_1" index="1" speed="30.00" length="3.73" shape="1521.65,468.50 1521.65,471.50"/>
    </edge>
    <edge id=":n121_0" function="internal">
        <lane id=":n121_0_0" index="0" speed="30.00" length="3.73" shape="268.35,321.50 265.05,318.50"/>
        <lane id=":n121_0_1" index="1" speed="30.00" length="3.73" shape="268.35,321.50 268.35,318.50"/>
    </edge>
    <edge id=":n121_2" function="internal">
        <lane id=":n121_2_0" index="0" speed="30.00" length="3.00" shape="271.65,318.50 271.65,321.50"/>
    </edge>
    <edge id=":n122_0" function="internal">
        <lane id=":n122_0_0" index="0" speed="30.00" length="3.73" shape="518.35,321.50 515.05,318.50"/>
        <lane id=":n122_0_1" index="1" speed="30.00" length="3.73" shape="518.35,321.50 518.35,318.50"/>
    </edge>
    <edge id=":n122_2" function="internal">
        <lane id=":n122_2_0" index="0" speed="30.00" length="3.00" shape="521.65,318.50 521.65,321.50"/>
    </edge>
    <edge id=":n123_0" function="internal">
        <lane id=":n123_0_0" index="0" speed="30.00" length="3.73" shape="768.35,321.50 765.05,318.50"/>
        <lane id=":n123_0_1" index="1" speed="30.00" length="3.73" shape="768.35,321.50 768.35,318.50"/>
    </edge>
    <edge id=":n123_2" function="internal">
        <lane id=":n123_2_0" index="0" speed="30.00" length="3.00" shape="771.65,318.50 771.65,321.50"/>
    </edge>
    <edge id=":n124_0" function="internal">
        <lane id=":n124_0_0" index="0" speed="30.00" length="3.73" shape="1018.35,321.50 1015.05,318.50"/>
        <lane id=":n124_0_1" index="1" speed="30.00" length="3.73" shape="1018.35,321.50 1018.35,318.50"/>
    </edge>
    <edge id=":n124_2" function="internal">
        <lane id=":n124_2_0" index="0" speed="30.00" length="3.00" shape="1021.65,318.50 1021.65,321.50"/>
    </edge>
    <edge id=":n125_0" function="internal">
        <lane id=":n125_0_0" index="0" speed="30.00" length="3.73" shape="1268.35,321.50 1265.05,318.50"/>
        <lane id=":n125_0_1" index="1" speed="30.00" length="3.73" shape="1268.35,321.50 1268.35,318.50"/>
    </edge>
    <edge id=":n125_2" function="internal">
        <lane id=":n125_2_0" index="0" speed="30.00" length="3.00" shape="1271.65,318.50 1271.65,321.50"/>
    </edge>
    <edge id=":n126_0" function="internal">
        <lane id=":n126_0_0" index="0" speed="30.00" length="3.73" shape="1518.35,321.50 1515.05,318.50"/>
        <lane id=":n126_0_1" index="1" speed="30.00" length="3.73" shape="1518.35,321.50 1518.35,318.50"/>
    </edge>
    <edge id=":n126_2" function="internal">
        <lane id=":n126_2_0" index="0" speed="30.00" length="3.00" shape="1521.65,318.50 1521.65,321.50"/>
    </edge>
    <edge id=":n127_0" function="internal">
        <lane id=":n127_0_0" index="0" speed="30.00" length="3.00" shape="221.50,271.65 218.50,271.65"/>
    </edge>
    <edge id=":n127_1" function="internal">
        <lane id=":n127_1_0" index="0" speed="30.00" length="3.73" shape="218.50,268.35 221.50,265.05"/>
        <lane id=":n127_1_1" index="1" speed="30.00" length="3.73" shape="218.50,268.35 221.50,268.35"/>
    </edge>
    <edge id=":n128_0" function="internal">
        <lane id=":n128_0_0" index="0" speed="30.00" length="3.73" shape="321.50,271.65 318.50,274.95"/>
        <lane id=":n128_0_1" index="1" speed="30.00" length="3.73" shape="321.50,271.65 318.50,271.65"/>
    </edge>
    <edge id=":n128_2" function="internal">
        <lane id=":n128_2_0" index="0" speed="30.00" length="3.00" shape="318.50,268.35 321.50,268.35"/>
    </edge>
    <edge id=":n129_0" function="internal">
        <lane id=":n129_0_0" index="0" speed="30.00" length="3.00" shape="471.50,271.65 468.50,271.65"/>
    </edge>
    <edge id=":n129_1" function="internal">
        <lane id=":n129_1_0" index="0" speed="30.00" length="3.73" shape="468.50,268.35 471.50,265.05"/>
        <lane id=":n129_1_1" index="1" speed="30.00" length="3.73" shape="468.50,268.35 471.50,268.35"/>
    </edge>
    <edge id=":n13_0" function="internal">
        <lane id=":n13_0_0" index="0" speed="30.00" length="13.09" shape="1015.05,1031.35 1014.65,1027.11 1013.45,1024.07 1011.45,1022.26 1008.65,1021.65"/>
    </edge>
    <edge id=":n13_1" function="internal">
        <lane id=":n13_1_0" index="0" speed="30.00" length="22.70" shape="1018.35,1031.35 1018.35,1008.65"/>
    </edge>
    <edge id=":n13_2" function="internal">
        <lane id=":n13_2_0" index="0" speed="30.00" length="7.47" shape="1018.35,1031.35 1019.16,1025.66 1020.05,1024.18"/>
    </edge>
    <edge id=":n13_12" function="internal">
        <lane id=":n13_12_0" index="0" speed="30.00" length="13.50" shape="1020.05,1024.18 1021.60,1021.60 1025.66,1019.16 1031.35,1018.35"/>
    </edge>
    <edge id=":n13_3" function="internal">
        <lane id=":n13_3_0" index="0" speed="30.00" length="13.09" shape="1031.35,1024.95 1027.11,1025.35 1024.07,1026.55 1022.26,1028.55 1021.65,1031.35"/>
    </edge>
    <edge id=":n13_4" function="internal">
        <lane id=":n13_4_0" index="0" speed="30.00" length="22.70" shape="1031.35,1021.65 1008.65,1021.65"/>
    </edge>
    <edge id=":n13_5" function="internal">
        <lane id=":n13_5_0" index="0" speed="30.00" length="7.47" shape="1031.35,1021.65 1025.66,1020.84 1024.18,1019.95"/>
    </edge>
    <edge id=":n13_13" function="internal">
        <lane id=":n13_13_0" index="0" speed="30.00" length="13.50" shape="1024.18,1019.95 1021.60,1018.40 1019.16,1014.34 1018.35,1008.65"/>
    </edge>
    <edge id=":n13_6" function="internal">
        <lane id=":n13_6_0" index="0" speed="30.00" length="13.09" shape="1024.95,1008.65 1025.35,1012.89 1026.55,1015.93 1028.55,1017.74 1031.35,1018.35"/>
    </edge>
    <edge id=":n13_7" function="internal">
        <lane id=":n13_7_0" index="0" speed="30.00" length="22.70" shape="1021.65,1008.65 1021.65,1031.35"/>
    </edge>
    <edge id=":n13_8" function="internal">
        <lane id=":n13_8_0" index="0" speed="30.00" length="7.47" shape="1021.65,1008.65 1020.84,1014.34 1019.95,1015.82"/>
    </edge>
    <edge id=":n13_14" function="internal">
        <lane id=":n13_14_0" index="0" speed="30.00" length="13.50" shape="1019.95,1015.82 1018.40,1018.40 1014.34,1020.84 1008.65,1021.65"/>
    </edge>
    <edge id=":n13_9" function="internal">
        <lane id=":n13_9_0" index="0" speed="30.00" length="13.09" shape="1008.65,1015.05 1012.89,1014.65 1015.93,1013.45 1017.74,1011.45 1018.35,1008.65"/>
    </edge>
    <edge id=":n13_10" function="internal">
        <lane id=":n13_10_0" index="0" speed="30.00" length="22.70" shape="1008.65,1018.35 1031.35,1018.35"/>
    </edge>
    <edge id=":n13_11" function="internal">
        <lane id=":n13_11_0" index="0" speed="30.00" length="7.47" shape="1008.65,1018.35 1014.34,1019.16 1015.82,1020.05"/>
    </edge>
    <edge id=":n13_15" function="internal">
        <lane id=":n13_15_0" index="0" speed="30.00" length="13.50" shape="1015.82,1020.05 1018.40,1021.60 1020.84,1025.66 1021.65,1031.35"/>
    </edge>
    <edge id=":n130_0" function="internal">
        <lane id=":n130_0_0" index="0" speed="30.00" length="3.73" shape="571.50,271.65 568.50,274.95"/>
        <lane id=":n130_0_1" index="1" speed="30.00" length="3.73" shape="571.50,271.65 568.50,271.65"/>
    </edge>
    <edge id=":n130_2" function="internal">
        <lane id=":n130_2_0" index="0" speed="30.00" length="3.00" shape="568.50,268.35 571.50,268.35"/>
    </edge>
    <edge id=":n131_0" function="internal">
        <lane id=":n131_0_0" index="0" speed="30.00" length="3.00" shape="721.50,271.65 718.50,271.65"/>
    </edge>
    <edge id=":n131_1" function="internal">
        <lane id=":n131_1_0" index="0" speed="30.00" length="3.73" shape="718.50,268.35 721.50,265.05"/>
        <lane id=":n131_1_1" index="1" speed="30.00" length="3.73" shape="718.50,268.35 721.50,268.35"/>
    </edge>
    <edge id=":n132_0" function="internal">
        <lane id=":n132_0_0" index="0" speed="30.00" length="3.73" shape="821.50,271.65 818.50,274.95"/>
        <lane id=":n132_0_1" index="1" speed="30.00" length="3.73" shape="821.50,271.65 818.50,271.65"/>
    </edge>
    <edge id=":n132_2" function="internal">
        <lane id=":n132_2_0" index="0" speed="30.00" length="3.00" shape="818.50,268.35 821.50,268.35"/>
    </edge>
    <edge id=":n133_0" function="internal">
        <lane id=":n133_0_0" index="0" speed="30.00" length="3.00" shape="971.50,271.65 968.50,271.65"/>
    </edge>
    <edge id=":n133_1" function="internal">
        <lane id=":n133_1_0" index="0" speed="30.00" length="3.73" shape="968.50,268.35 971.50,265.05"/>