<routes>
	<vType accel="1.0" decel="5.0" id="NormalVehicle" length="2.0" maxSpeed="2.5" sigma="0.0"  type="NormalVehicle"/>
	<vType accel="1.0" decel="5.0" id="JustKerbsVehicle" length="2.0" maxSpeed="2.5" sigma="0.0"  type="JustKerbsVehicle"/>
	<vType accel="1.0" decel="5.0" id="EmergencyVehicle" length="2.5" maxSpeed="3.0" sigma="0.0" type="EmergencyVehicle"/>
	<vType accel="1.0" decel="5.0" id="Bus" length="6" maxSpeed="1.1" sigma="0.0"/>
	<vType accel="1.0" decel="5.0" id="SlowVehicle" length="2" maxSpeed="0.2" sigma="0.0" type="SlowVehicle"/>
	<vType accel="1.0" decel="5.0" id="AccidentVehicle" length="2" maxSpeed="2" sigma="0.0" type="AccidentVehicles"/>
	<vType accel="1.0" decel="5.0" id="JustSirenEmergencyVehicle" length="2.5" maxSpeed="3.0" sigma="0.0" type="JustSirenEmergencyVehicle"/>
	<route id="0"  edges="167to47 47to46 46to45 45to44 44to164"/>
	<route id="1"  edges="159to33 33to41 41to161"/>
	<route id="2"  edges="156to24 24to90 90to23 23to96 96to102 102to31 31to113 113to112 112to30 30to101 101to95 95to22 22to77 77to71 71to14 14to63 63to62 62to13 13to52 52to5 5to6 6to7 7to54 54to15 15to66 66to16 16to8 8to152"/>
	<route id="3"  edges="155to17 17to9 9to153"/>
	<route id="4"  edges="161to41 41to42 42to139 139to34 34to121 121to115 115to26 26to103 103to25 25to17 17to79 79to18 18to73 73to67 67to10 10to49 49to2 2to146"/>
	<route id="5"  edges="167to47 47to46 46to45 45to142 142to37 37to133 133to132 132to36 36to141 141to44 44to164"/>
	<route id="6"  edges="152to8 8to16 16to66 66to15 15to54 54to7 7to151"/>
	<route id="7"  edges="165to45 45to46 46to47 47to144 144to39 39to126 126to120 120to31 31to114 114to32 32to158"/>
	<route id="8"  edges="148to4 4to51 51to12 12to69 69to75 75to20 20to93 93to99 99to28 28to108 108to109 109to29 29to118 118to124 124to37 37to133 133to132 132to36 36to141 141to44 44to164"/>
	<route id="9"  edges="146to2 2to1 1to145"/>
	<route id="10"  edges="146to2 2to1 1to145"/>
	<route id="11"  edges="156to24 24to32 32to40 40to160"/>
	<route id="12"  edges="153to9 9to1 1to145"/>
	<route id="13"  edges="145to1 1to9 9to55 55to10 10to56 56to57 57to11 11to50 50to3 3to147"/>
	<route id="14"  edges="145to1 1to2 2to49 49to10 10to67 67to73 73to18 18to80 80to81 81to19 19to74 74to68 68to11 11to50 50to3 3to147"/>
	<route id="15"  edges="150to6 6to53 53to14 14to63 63to62 62to13 13to61 61to60 60to12 12to51 51to4 4to148"/>
	<route id="16"  edges="155to17 17to9 9to153"/>
	<route id="17"  edges="165to45 45to46 46to47 47to48 48to168"/>
	<route id="18"  edges="151to7 7to8 8to16 16to66 66to15 15to72 72to78 78to23 23to89 89to88 88to22 22to95 95to101 101to30 30to119 119to125 125to38 38to135 135to134 134to37 37to142 142to45 45to165"/>
	<route id="19"  edges="162to42 42to43 43to140 140to35 35to122 122to116 116to27 27to105 105to104 104to26 26to97 97to91 91to18 18to79 79to17 17to155"/>
	<route id="20"  edges="147to3 3to4 4to5 5to149"/>
	<route id="21"  edges="164to44 44to141 141to36 36to131 131to130 130to35 35to140 140to43 43to163"/>
	<route id="22"  edges="145to1 1to2 2to146"/>
	<route id="23"  edges="150to6 6to53 53to14 14to63 63to62 62to13 13to52 52to5 5to149"/>
	<route id="24"  edges="150to6 6to7 7to54 54to15 15to66 66to16 16to154"/>
	<route id="25"  edges="151to7 7to8 8to16 16to24 24to32 32to158"/>
	<route id="26"  edges="159to33 33to25 25to103 103to26 26to104 104to105 105to27 27to98 98to92 92to19 19to82 82to83 83to20 20to75 75to69 69to12 12to59 59to58 58to11 11to57 57to56 56to10 10to55 55to9 9to153"/>
	<route id="27"  edges="145to1 1to2 2to146"/>
	<route id="28"  edges="166to46 46to45 45to165"/>
	<route id="29"  edges="150to6 6to53 53to14 14to63 63to62 62to13 13to52 52to5 5to149"/>
	<route id="30"  edges="148to4 4to51 51to12 12to69 69to75 75to20 20to93 93to99 99to28 28to108 108to109 109to29 29to118 118to124 124to37 37to133 133to132 132to36 36to141 141to44 44to164"/>
	<route id="31"  edges="145to1 1to2 2to3 3to50 50to11 11to58 58to59 59to12 12to51 51to4 4to148"/>
	<route id="32"  edges="147to3 3to50 50to11 11to68 68to74 74to19 19to92 92to98 98to27 27to105 105to104 104to26 26to97 97to91 91to18 18to73 73to67 67to10 10to49 49to2 2to146"/>
	<route id="33"  edges="164to44 44to45 45to165"/>
	<route id="34"  edges="145to1 1to2 2to49 49to10 10to67 67to73 73to18 18to80 80to81 81to19 19to74 74to68 68to11 11to50 50to3 3to147"/>
	<route id="35"  edges="147to3 3to4 4to5 5to149"/>
	<route id="36"  edges="156to24 24to90 90to23 23to96 96to102 102to31 31to114 114to32 32to40 40to160"/>
	<route id="37"  edges="154to16 16to24 24to90 90to23 23to96 96to102 102to31 31to114 114to32 32to158"/>
	<route id="38"  edges="158to32 32to114 114to31 31to113 113to112 112to30 30to101 101to95 95to22 22to88 88to89 89to23 23to90 90to24 24to16 16to8 8to7 7to6 6to150"/>
	<route id="39"  edges="163to43 43to42 42to139 139to34 34to127 127to33 33to159"/>
	<route id="40"  edges="149to5 5to4 4to3 3to50 50to11 11to57 57to56 56to10 10to49 49to2 2to1 1to145"/>
	<route id="41"  edges="167to47 47to144 144to39 39to137 137to136 136to38 38to143 143to46 46to45 45to142 142to37 37to124 124to118 118to29 29to100 100to94 94to21 21to85 85to84 84to20 20to75 75to69 69to12 12to51 51to4 4to5 5to149"/>
	<route id="42"  edges="150to6 6to5 5to149"/>
	<route id="43"  edges="164to44 44to141 141to36 36to132 132to133 133to37 37to134 134to135 135to38 38to143 143to46 46to47 47to144 144to39 39to126 126to120 120to31 31to102 102to96 96to23 23to89 89to88 88to22 22to87 87to86 86to21 21to94 94to100 100to29 29to109 109to108 108to28 28to99 99to93 93to20 20to75 75to69 69to12 12to51 51to4 4to5 5to6 6to150"/>
	<route id="44"  edges="154to16 16to24 24to32 32to158"/>
	<route id="45"  edges="162to42 42to139 139to34 34to127 127to33 33to159"/>
	<route id="46"  edges="148to4 4to5 5to149"/>
	<route id="47"  edges="159to33 33to25 25to17 17to155"/>
	<route id="48"  edges="148to4 4to5 5to149"/>
	<route id="49"  edges="163to43 43to42 42to41 41to33 33to159"/>
	<route id="50"  edges="156to24 24to16 16to154"/>
	<route id="51"  edges="163to43 43to44 44to164"/>
	<route id="52"  edges="145to1 1to9 9to17 17to155"/>
	<route id="53"  edges="147to3 3to2 2to1 1to145"/>
	<route id="54"  edges="165to45 45to46 46to47 47to48 48to40 40to138 138to39 39to126 126to120 120to31 31to113 113to112 112to30 30to119 119to125 125to38 38to135 135to134 134to37 37to124 124to118 118to29 29to100 100to94 94to21 21to85 85to84 84to20 20to83 83to82 82to19 19to74 74to68 68to11 11to57 57to56 56to10 10to49 49to2 2to146"/>
	<route id="55"  edges="162to42 42to41 41to161"/>
	<route id="56"  edges="155to17 17to79 79to18 18to73 73to67 67to10 10to56 56to57 57to11 11to68 68to74 74to19 19to82 82to83 83to20 20to84 84to85 85to21 21to94 94to100 100to29 29to110 110to111 111to30 30to119 119to125 125to38 38to135 135to134 134to37 37to133 133to132 132to36 36to131 131to130 130to35 35to140 140to43 43to163"/>
	<route id="57"  edges="166to46 46to45 45to165"/>
	<route id="58"  edges="156to24 24to90 90to23 23to89 89to88 88to22 22to95 95to101 101to30 30to112 112to113 113to31 31to120 120to126 126to39 39to144 144to47 47to48 48to168"/>
	<route id="59"  edges="156to24 24to90 90to23 23to96 96to102 102to31 31to114 114to32 32to40 40to138 138to39 39to144 144to47 47to167"/>
	<route id="60"  edges="156to24 24to90 90to23 23to96 96to102 102to31 31to114 114to32 32to40 40to160"/>
	<route id="61"  edges="164to44 44to141 141to36 36to123 123to117 117to28 28to99 99to93 93to20 20to83 83to82 82to19 19to92 92to98 98to27 27to116 116to122 122to35 35to129 129to128 128to34 34to127 127to33 33to25 25to157"/>
	<route id="62"  edges="149to5 5to6 6to7 7to151"/>
	<route id="63"  edges="162to42 42to139 139to34 34to127 127to33 33to25 25to103 103to26 26to104 104to105 105to27 27to98 98to92 92to19 19to82 82to83 83to20 20to75 75to69 69to12 12to51 51to4 4to148"/>
	<route id="64"  edges="159to33 33to41 41to42 42to139 139to34 34to128 128to129 129to35 35to140 140to43 43to163"/>
	<route id="65"  edges="153to9 9to17 17to155"/>
	<route id="66"  edges="164to44 44to141 141to36 36to132 132to133 133to37 37to124 124to118 118to29 29to110 110to111 111to30 30to101 101to95 95to22 22to88 88to89 89to23 23to90 90to24 24to16 16to8 8to7 7to6 6to150"/>
	<route id="67"  edges="146to2 2to49 49to10 10to55 55to9 9to1 1to145"/>
	<route id="68"  edges="156to24 24to16 16to154"/>
	<route id="69"  edges="165to45 45to142 142to37 37to134 134to135 135to38 38to125 125to119 119to30 30to101 101to95 95to22 22to77 77to71 71to14 14to53 53to6 6to150"/>
	<route id="70"  edges="150to6 6to5 5to149"/>
	<route id="71"  edges="155to17 17to9 9to1 1to145"/>
	<route id="72"  edges="153to9 9to55 55to10 10to56 56to57 57to11 11to50 50to3 3to147"/>
	<route id="73"  edges="145to1 1to9 9to17 17to155"/>
	<route id="74"  edges="150to6 6to5 5to149"/>
	<route id="75"  edges="153to9 9to1 1to145"/>
	<route id="76"  edges="149to5 5to6 6to53 53to14 14to64 64to65 65to15 15to54 54to7 7to8 8to152"/>
	<route id="77"  edges="165to45 45to44 44to164"/>
	<route id="78"  edges="154to16 16to8 8to152"/>
	<route id="79"  edges="155to17 17to79 79to18 18to73 73to67 67to10 10to55 55to9 9to1 1to145"/>
	<route id="80"  edges="164to44 44to43 43to163"/>
	<route id="81"  edges="150to6 6to5 5to52 52to13 13to62 62to63 63to14 14to64 64to65 65to15 15to72 72to78 78to23 23to90 90to24 24to156"/>
	<route id="82"  edges="154to16 16to8 8to152"/>
	<route id="83"  edges="164to44 44to141 141to36 36to131 131to130 130to35 35to140 140to43 43to163"/>
	<route id="84"  edges="165to45 45to142 142to37 37to134 134to135 135to38 38to125 125to119 119to30 30to101 101to95 95to22 22to77 77to71 71to14 14to53 53to6 6to150"/>
	<route id="85"  edges="150to6 6to53 53to14 14to63 63to62 62to13 13to70 70to76 76to21 21to85 85to84 84to20 20to93 93to99 99to28 28to108 108to109 109to29 29to110 110to111 111to30 30to101 101to95 95to22 22to88 88to89 89to23 23to90 90to24 24to32 32to40 40to138 138to39 39to137 137to136 136to38 38to135 135to134 134to37 37to142 142to45 45to165"/>
	<route id="86"  edges="157to25 25to103 103to26 26to97 97to91 91to18 18to79 79to17 17to9 9to153"/>
	<route id="87"  edges="159to33 33to127 127to34 34to139 139to42 42to41 41to161"/>
	<route id="88"  edges="154to16 16to24 24to90 90to23 23to96 96to102 102to31 31to120 120to126 126to39 39to144 144to47 47to48 48to168"/>
	<route id="89"  edges="160to40 40to48 48to168"/>
	<route id="90"  edges="154to16 16to8 8to152"/>
	<route id="91"  edges="163to43 43to44 44to45 45to165"/>
	<route id="92"  edges="153to9 9to1 1to145"/>
	<route id="93"  edges="145to1 1to9 9to17 17to155"/>
	<route id="94"  edges="152to8 8to16 16to24 24to156"/>
	<route id="95"  edges="145to1 1to9 9to17 17to155"/>
	<route id="96"  edges="155to17 17to9 9to153"/>
	<route id="97"  edges="150to6 6to5 5to52 52to13 13to61 61to60 60to12 12to51 51to4 4to148"/>
	<route id="98"  edges="165to45 45to44 44to43 43to42 42to162"/>
	<route id="99"  edges="160to40 40to138 138to39 39to144 144to47 47to167"/>
	<route id="100"  edges="150to6 6to5 5to52 52to13 13to61 61to60 60to12 12to59 59to58 58to11 11to68 68to74 74to19 19to92 92to98 98to27 27to105 105to104 104to26 26to97 97to91 91to18 18to79 79to17 17to155"/>
	<route id="101"  edges="156to24 24to32 32to40 40to48 48to168"/>
	<route id="102"  edges="151to7 7to8 8to152"/>
	<route id="103"  edges="165to45 45to142 142to37 37to134 134to135 135to38 38to125 125to119 119to30 30to101 101to95 95to22 22to77 77to71 71to14 14to53 53to6 6to150"/>
	<route id="104"  edges="146to2 2to3 3to147"/>
	<route id="105"  edges="163to43 43to44 44to164"/>
	<route id="106"  edges="148to4 4to5 5to149"/>
	<route id="107"  edges="153to9 9to17 17to155"/>
	<route id="108"  edges="158to32 32to24 24to90 90to23 23to96 96to102 102to31 31to113 113to112 112to30 30to119 119to125 125to38 38to143 143to46 46to47 47to167"/>
	<route id="109"  edges="161to41 41to42 42to139 139to34 34to128 128to129 129to35 35to122 122to116 116to27 27to98 98to92 92to19 19to82 82to83 83to20 20to93 93to99 99to28 28to108 108to109 109to29 29to118 118to124 124to37 37to134 134to135 135to38 38to125 125to119 119to30 30to112 112to113 113to31 31to114 114to32 32to40 40to48 48to47 47to46 46to166"/>
	<route id="110"  edges="165to45 45to142 142to37 37to134 134to135 135to38 38to143 143to46 46to47 47to48 48to40 40to160"/>
	<route id="111"  edges="152to8 8to16 16to66 66to15 15to54 54to7 7to151"/>
	<route id="112"  edges="146to2 2to49 49to10 10to55 55to9 9to1 1to145"/>
	<route id="113"  edges="165to45 45to44 44to43 43to163"/>
	<route id="114"  edges="149to5 5to6 6to7 7to151"/>
	<route id="115"  edges="160to40 40to138 138to39 39to137 137to136 136to38 38to143 143to46 46to45 45to165"/>
	<route id="116"  edges="146to2 2to1 1to145"/>
	<route id="117"  edges="159to33 33to41 41to161"/>
	<route id="118"  edges="159to33 33to41 41to161"/>
	<route id="119"  edges="158to32 32to24 24to90 90to23 23to96 96to102 102to31 31to113 113to112 112to30 30to119 119to125 125to38 38to143 143to46 46to47 47to167"/>
	<route id="120"  edges="150to6 6to5 5to52 52to13 13to61 61to60 60to12 12to59 59to58 58to11 11to68 68to74 74to19 19to92 92to98 98to27 27to105 105to104 104to26 26to97 97to91 91to18 18to79 79to17 17to155"/>
	<route id="121"  edges="158to32 32to114 114to31 31to120 120to126 126to39 39to137 137to136 136to38 38to143 143to46 46to47 47to167"/>
	<route id="122"  edges="156to24 24to16 16to66 66to15 15to54 54to7 7to6 6to150"/>
	<route id="123"  edges="157to25 25to17 17to155"/>
	<route id="124"  edges="160to40 40to138 138to39 39to144 144to47 47to167"/>
	<route id="125"  edges="149to5 5to6 6to53 53to14 14to71 71to77 77to22 22to95 95to101 101to30 30to119 119to125 125to38 38to135 135to134 134to37 37to142 142to45 45to165"/>
	<route id="126"  edges="162to42 42to41 41to33 33to25 25to17 17to155"/>
	<route id="127"  edges="148to4 4to3 3to147"/>
	<route id="128"  edges="160to40 40to32 32to24 24to90 90to23 23to89 89to88 88to22 22to77 77to71 71to14 14to53 53to6 6to7 7to8 8to152"/>
	<route id="129"  edges="163to43 43to42 42to41 41to161"/>
	<route id="130"  edges="162to42 42to43 43to163"/>
	<route id="131"  edges="150to6 6to5 5to4 4to51 51to12 12to69 69to75 75to20 20to84 84to85 85to21 21to86 86to87 87to22 22to88 88to89 89to23 23to78 78to72 72to15 15to66 66to16 16to8 8to7 7to151"/>
	<route id="132"  edges="154to16 16to66 66to15 15to72 72to78 78to23 23to96 96to102 102to31 31to113 113to112 112to30 30to119 119to125 125to38 38to143 143to46 46to47 47to48 48to168"/>
	<route id="133"  edges="151to7 7to8 8to152"/>
	<route id="134"  edges="150to6 6to53 53to14 14to71 71to77 77to22 22to88 88to89 89to23 23to78 78to72 72to15 15to66 66to16 16to154"/>
	<route id="135"  edges="161to41 41to33 33to127 127to34 34to128 128to129 129to35 35to140 140to43 43to44 44to45 45to165"/>
	<route id="136"  edges="151to7 7to8 8to16 16to24 24to156"/>
	<route id="137"  edges="148to4 4to5 5to52 52to13 13to62 62to63 63to14 14to71 71to77 77to22 22to95 95to101 101to30 30to119 119to125 125to38 38to135 135to134 134to37 37to124 124to118 118to29 29to109 109to108 108to28 28to117 117to123 123to36 36to131 131to130 130to35 35to129 129to128 128to34 34to121 121to115 115to26 26to103 103to25 25to33 33to41 41to161"/>
	<route id="138"  edges="145to1 1to2 2to146"/>
	<route id="139"  edges="145to1 1to2 2to3 3to50 50to11 11to57 57to56 56to10 10to55 55to9 9to17 17to79 79to18 18to91 91to97 97to26 26to115 115to121 121to34 34to139 139to42 42to41 41to161"/>
	<route id="140"  edges="162to42 42to41 41to161"/>
	<route id="141"  edges="154to16 16to66 66to15 15to72 72to78 78to23 23to96 96to102 102to31 31to113 113to112 112to30 30to119 119to125 125to38 38to143 143to46 46to47 47to48 48to168"/>
	<route id="142"  edges="166to46 46to143 143to38 38to125 125to119 119to30 30to112 112to113 113to31 31to102 102to96 96to23 23to90 90to24 24to16 16to8 8to152"/>
	<route id="143"  edges="152to8 8to7 7to6 6to5 5to4 4to51 51to12 12to60 60to61 61to13 13to70 70to76 76to21 21to94 94to100 100to29 29to109 109to108 108to28 28to99 99to93 93to20 20to83 83to82 82to19 19to92 92to98 98to27 27to105 105to104 104to26 26to103 103to25 25to17 17to9 9to153"/>
	<route id="144"  edges="155to17 17to79 79to18 18to73 73to67 67to10 10to55 55to9 9to153"/>
	<route id="145"  edges="158to32 32to24 24to156"/>
	<route id="146"  edges="152to8 8to7 7to54 54to15 15to66 66to16 16to154"/>
	<route id="147"  edges="161to41 41to42 42to139 139to34 34to127 127to33 33to25 25to103 103to26 26to104 104to105 105to27 27to98 98to92 92to19 19to82 82to83 83to20 20to75 75to69 69to12 12to59 59to58 58to11 11to57 57to56 56to10 10to67 67to73 73to18 18to79 79to17 17to155"/>
	<route id="148"  edges="165to45 45to142 142to37 37to124 124to118 118to29 29to110 110to111 111to30 30to101 101to95 95to22 22to77 77to71 71to14 14to63 63to62 62to13 13to61 61to60 60to12 12to51 51to4 4to148"/>
	<route id="149"  edges="149to5 5to4 4to148"/>
	<route id="150"  edges="150to6 6to53 53to14 14to63 63to62 62to13 13to52 52to5 5to149"/>
	<route id="151"  edges="157to25 25to103 103to26 26to97 97to91 91to18 18to79 79to17 17to9 9to153"/>
	<route id="152"  edges="162to42 42to43 43to163"/>
	<route id="153"  edges="150to6 6to5 5to4 4to148"/>
	<route id="154"  edges="163to43 43to140 140to35 35to122 122to116 116to27 27to98 98to92 92to19 19to81 81to80 80to18 18to73 73to67 67to10 10to56 56to57 57to11 11to50 50to3 3to147"/>
	<route id="155"  edges="165to45 45to44 44to43 43to163"/>
	<route id="156"  edges="167to47 47to144 144to39 39to126 126to120 120to31 31to102 102to96 96to23 23to90 90to24 24to32 32to40 40to48 48to168"/>
	<route id="157"  edges="150to6 6to5 5to52 52to13 13to61 61to60 60to12 12to59 59to58 58to11 11to68 68to74 74to19 19to81 81to80 80to18 18to79 79to17 17to155"/>
	<route id="158"  edges="156to24 24to90 90to23 23to89 89to88 88to22 22to77 77to71 71to14 14to63 63to62 62to13 13to52 52to5 5to4 4to51 51to12 12to59 59to58 58to11 11to50 50to3 3to2 2to1 1to145"/>
	<route id="159"  edges="150to6 6to7 7to8 8to152"/>
	<route id="160"  edges="156to24 24to90 90to23 23to96 96to102 102to31 31to114 114to32 32to40 40to160"/>
	<route id="161"  edges="161to41 41to33 33to159"/>
	<route id="162"  edges="158to32 32to114 114to31 31to113 113to112 112to30 30to101 101to95 95to22 22to88 88to89 89to23 23to90 90to24 24to16 16to8 8to7 7to6 6to150"/>
	<route id="163"  edges="154to16 16to8 8to152"/>
	<route id="164"  edges="156to24 24to16 16to66 66to15 15to54 54to7 7to6 6to150"/>
	<route id="165"  edges="166to46 46to45 45to142 142to37 37to134 134to135 135to38 38to125 125to119 119to30 30to101 101to95 95to22 22to87 87to86 86to21 21to76 76to70 70to13 13to52 52to5 5to6 6to150"/>
	<route id="166"  edges="159to33 33to41 41to161"/>
	<route id="167"  edges="148to4 4to51 51to12 12to59 59to58 58to11 11to50 50to3 3to2 2to146"/>
	<route id="168"  edges="158to32 32to24 24to156"/>
	<route id="169"  edges="164to44 44to45 45to165"/>
	<route id="170"  edges="155to17 17to79 79to18 18to73 73to67 67to10 10to55 55to9 9to153"/>
	<route id="171"  edges="152to8 8to16 16to154"/>
	<route id="172"  edges="147to3 3to2 2to1 1to9 9to153"/>
	<route id="173"  edges="156to24 24to90 90to23 23to78 78to72 72to15 15to65 65to64 64to14 14to53 53to6 6to5 5to149"/>
	<route id="174"  edges="163to43 43to42 42to162"/>
	<route id="175"  edges="145to1 1to2 2to3 3to147"/>
	<route id="176"  edges="163to43 43to44 44to141 141to36 36to132 132to133 133to37 37to134 134to135 135to38 38to125 125to119 119to30 30to101 101to95 95to22 22to77 77to71 71to14 14to64 64to65 65to15 15to66 66to16 16to154"/>
	<route id="177"  edges="154to16 16to24 24to90 90to23 23to96 96to102 102to31 31to114 114to32 32to158"/>
	<route id="178"  edges="150to6 6to53 53to14 14to71 71to77 77to22 22to87 87to86 86to21 21to94 94to100 100to29 29to109 109to108 108to28 28to99 99to93 93to20 20to75 75to69 69to12 12to59 59to58 58to11 11to50 50to3 3to2 2to146"/>
	<route id="179"  edges="155to17 17to79 79to18 18to91 91to97 97to26 26to104 104to105 105to27 27to116 116to122 122to35 35to130 130to131 131to36 36to123 123to117 117to28 28to99 99to93 93to20 20to75 75to69 69to12 12to51 51to4 4to148"/>
	<route id="180"  edges="161to41 41to33 33to25 25to157"/>
	<route id="181"  edges="164to44 44to43 43to42 42to41 41to161"/>
	<route id="182"  edges="156to24 24to32 32to114 114to31 31to102 102to96 96to23 23to89 89to88 88to22 22to77 77to71 71to14 14to53 53to6 6to7 7to151"/>
	<route id="183"  edges="145to1 1to2 2to146"/>
	<route id="184"  edges="161to41 41to33 33to25 25to157"/>
	<route id="185"  edges="157to25 25to17 17to79 79to18 18to73 73to67 67to10 10to55 55to9 9to1 1to145"/>
	<route id="186"  edges="147to3 3to2 2to146"/>
	<route id="187"  edges="151to7 7to8 8to152"/>
	<route id="188"  edges="166to46 46to45 45to165"/>
	<route id="189"  edges="149to5 5to52 52to13 13to61 61to60 60to12 12to59 59to58 58to11 11to50 50to3 3to147"/>
	<route id="190"  edges="149to5 5to6 6to53 53to14 14to64 64to65 65to15 15to54 54to7 7to8 8to152"/>
	<route id="191"  edges="150to6 6to7 7to8 8to152"/>
	<route id="192"  edges="153to9 9to55 55to10 10to49 49to2 2to1 1to145"/>
	<route id="193"  edges="155to17 17to9 9to1 1to145"/>
	<route id="194"  edges="165to45 45to46 46to143 143to38 38to136 136to137 137to39 39to144 144to47 47to48 48to168"/>
	<route id="195"  edges="161to41 41to42 42to162"/>
	<route id="196"  edges="151to7 7to54 54to15 15to65 65to64 64to14 14to63 63to62 62to13 13to70 70to76 76to21 21to94 94to100 100to29 29to118 118to124 124to37 37to134 134to135 135to38 38to143 143to46 46to166"/>
	<route id="197"  edges="156to24 24to90 90to23 23to89 89to88 88to22 22to77 77to71 71to14 14to63 63to62 62to13 13to52 52to5 5to4 4to51 51to12 12to59 59to58 58to11 11to50 50to3 3to2 2to1 1to145"/>
	<route id="198"  edges="153to9 9to55 55to10 10to67 67to73 73to18 18to80 80to81 81to19 19to74 74to68 68to11 11to58 58to59 59to12 12to60 60to61 61to13 13to52 52to5 5to6 6to7 7to8 8to16 16to24 24to32 32to158"/>
	<route id="199"  edges="154to16 16to66 66to15 15to54 54to7 7to151"/>
	<route id="200"  edges="153to9 9to17 17to155"/>
	<route id="201"  edges="165to45 45to46 46to47 47to144 144to39 39to126 126to120 120to31 31to114 114to32 32to158"/>
	<route id="202"  edges="148to4 4to5 5to149"/>
	<route id="203"  edges="147to3 3to2 2to146"/>
	<route id="204"  edges="150to6 6to7 7to151"/>
	<route id="205"  edges="148to4 4to5 5to52 52to13 13to62 62to63 63to14 14to71 71to77 77to22 22to95 95to101 101to30 30to119 119to125 125to38 38to135 135to134 134to37 37to124 124to118 118to29 29to109 109to108 108to28 28to117 117to123 123to36 36to131 131to130 130to35 35to129 129to128 128to34 34to121 121to115 115to26 26to103 103to25 25to33 33to41 41to161"/>
	<route id="206"  edges="146to2 2to1 1to9 9to17 17to79 79to18 18to80 80to81 81to19 19to82 82to83 83to20 20to75 75to69 69to12 12to51 51to4 4to3 3to147"/>
	<route id="207"  edges="163to43 43to140 140to35 35to122 122to116 116to27 27to106 106to107 107to28 28to99 99to93 93to20 20to84 84to85 85to21 21to94 94to100 100to29 29to110 110to111 111to30 30to119 119to125 125to38 38to143 143to46 46to45 45to142 142to37 37to133 133to132 132to36 36to141 141to44 44to164"/>
	<route id="208"  edges="163to43 43to140 140to35 35to122 122to116 116to27 27to106 106to107 107to28 28to99 99to93 93to20 20to84 84to85 85to21 21to94 94to100 100to29 29to110 110to111 111to30 30to119 119to125 125to38 38to143 143to46 46to45 45to142 142to37 37to133 133to132 132to36 36to141 141to44 44to164"/>
	<route id="209"  edges="152to8 8to7 7to151"/>
	<route id="210"  edges="162to42 42to43 43to163"/>
	<route id="211"  edges="154to16 16to66 66to15 15to54 54to7 7to151"/>
	<route id="212"  edges="163to43 43to44 44to141 141to36 36to132 132to133 133to37 37to134 134to135 135to38 38to125 125to119 119to30 30to101 101to95 95to22 22to77 77to71 71to14 14to64 64to65 65to15 15to66 66to16 16to154"/>
	<route id="213"  edges="160to40 40to48 48to47 47to167"/>
	<route id="214"  edges="160to40 40to32 32to158"/>
	<route id="215"  edges="156to24 24to16 16to154"/>
	<route id="216"  edges="160to40 40to138 138to39 39to144 144to47 47to167"/>
	<route id="217"  edges="162to42 42to43 43to44 44to164"/>
	<route id="218"  edges="154to16 16to8 8to152"/>
	<route id="219"  edges="152to8 8to16 16to66 66to15 15to54 54to7 7to6 6to53 53to14 14to63 63to62 62to13 13to70 70to76 76to21 21to85 85to84 84to20 20to75 75to69 69to12 12to51 51to4 4to3 3to50 50to11 11to57 57to56 56to10 10to49 49to2 2to1 1to145"/>
	<route id="220"  edges="153to9 9to55 55to10 10to67 67to73 73to18 18to91 91to97 97to26 26to115 115to121 121to34 34to128 128to129 129to35 35to130 130to131 131to36 36to141 141to44 44to164"/>
	<route id="221"  edges="148to4 4to3 3to2 2to146"/>
	<route id="222"  edges="145to1 1to2 2to3 3to50 50to11 11to58 58to59 59to12 12to51 51to4 4to148"/>
	<route id="223"  edges="161to41 41to33 33to159"/>
	<route id="224"  edges="166to46 46to143 143to38 38to125 125to119 119to30 30to112 112to113 113to31 31to102 102to96 96to23 23to90 90to24 24to16 16to8 8to152"/>
	<route id="225"  edges="158to32 32to24 24to90 90to23 23to96 96to102 102to31 31to113 113to112 112to30 30to119 119to125 125to38 38to143 143to46 46to47 47to167"/>
	<route id="226"  edges="150to6 6to53 53to14 14to64 64to65 65to15 15to54 54to7 7to8 8to152"/>
	<route id="227"  edges="155to17 17to79 79to18 18to73 73to67 67to10 10to49 49to2 2to1 1to9 9to153"/>
	<route id="228"  edges="151to7 7to8 8to16 16to154"/>
	<route id="229"  edges="158to32 32to114 114to31 31to102 102to96 96to23 23to78 78to72 72to15 15to54 54to7 7to8 8to16 16to154"/>
	<route id="230"  edges="160to40 40to138 138to39 39to126 126to120 120to31 31to114 114to32 32to158"/>
	<route id="231"  edges="152to8 8to16 16to154"/>
	<route id="232"  edges="145to1 1to9 9to55 55to10 10to56 56to57 57to11 11to50 50to3 3to147"/>
	<route id="233"  edges="146to2 2to3 3to147"/>
	<route id="234"  edges="163to43 43to44 44to164"/>
	<route id="235"  edges="161to41 41to42 42to139 139to34 34to128 128to129 129to35 35to122 122to116 116to27 27to98 98to92 92to19 19to82 82to83 83to20 20to93 93to99 99to28 28to108 108to109 109to29 29to118 118to124 124to37 37to134 134to135 135to38 38to125 125to119 119to30 30to112 112to113 113to31 31to114 114to32 32to40 40to48 48to47 47to46 46to166"/>
	<route id="236"  edges="156to24 24to90 90to23 23to89 89to88 88to22 22to95 95to101 101to30 30to112 112to113 113to31 31to120 120to126 126to39 39to144 144to47 47to48 48to168"/>
	<route id="237"  edges="157to25 25to103 103to26 26to97 97to91 91to18 18to73 73to67 67to10 10to49 49to2 2to1 1to145"/>
	<route id="238"  edges="146to2 2to1 1to9 9to153"/>
	<route id="239"  edges="151to7 7to8 8to152"/>
	<route id="240"  edges="146to2 2to1 1to9 9to17 17to155"/>
	<route id="241"  edges="156to24 24to16 16to154"/>
	<route id="242"  edges="156to24 24to32 32to114 114to31 31to102 102to96 96to23 23to89 89to88 88to22 22to77 77to71 71to14 14to53 53to6 6to7 7to151"/>
	<route id="243"  edges="146to2 2to3 3to147"/>
	<route id="244"  edges="158to32 32to24 24to90 90to23 23to96 96to102 102to31 31to113 113to112 112to30 30to119 119to125 125to38 38to143 143to46 46to47 47to167"/>
	<route id="245"  edges="151to7 7to8 8to16 16to66 66to15 15to65 65to64 64to14 14to53 53to6 6to5 5to4 4to148"/>
	<route id="246"  edges="156to24 24to90 90to23 23to89 89to88 88to22 22to95 95to101 101to30 30to112 112to113 113to31 31to120 120to126 126to39 39to144 144to47 47to48 48to168"/>
	<route id="247"  edges="159to33 33to25 25to157"/>
	<route id="248"  edges="147to3 3to2 2to1 1to145"/>
	<route id="249"  edges="162to42 42to139 139to34 34to127 127to33 33to159"/>
	<route id="250"  edges="148to4 4to5 5to52 52to13 13to62 62to63 63to14 14to71 71to77 77to22 22to95 95to101 101to30 30to119 119to125 125to38 38to135 135to134 134to37 37to124 124to118 118to29 29to109 109to108 108to28 28to117 117to123 123to36 36to131 131to130 130to35 35to129 129to128 128to34 34to121 121to115 115to26 26to103 103to25 25to33 33to41 41to161"/>
	<route id="251"  edges="150to6 6to7 7to8 8to152"/>
	<route id="252"  edges="151to7 7to54 54to15 15to66 66to16 16to154"/>
	<route id="253"  edges="147to3 3to2 2to146"/>
	<route id="254"  edges="163to43 43to42 42to41 41to33 33to25 25to17 17to155"/>
	<route id="255"  edges="162to42 42to43 43to163"/>
	<route id="256"  edges="165to45 45to46 46to47 47to144 144to39 39to126 126to120 120to31 31to114 114to32 32to158"/>
	<route id="257"  edges="164to44 44to45 45to165"/>
	<route id="258"  edges="157to25 25to103 103to26 26to115 115to121 121to34 34to128 128to129 129to35 35to130 130to131 131to36 36to141 141to44 44to45 45to165"/>
	<route id="259"  edges="154to16 16to66 66to15 15to72 72to78 78to23 23to96 96to102 102to31 31to113 113to112 112to30 30to119 119to125 125to38 38to135 135to134 134to37 37to142 142to45 45to165"/>
	<route id="260"  edges="159to33 33to41 41to161"/>
	<route id="261"  edges="166to46 46to47 47to48 48to168"/>
	<route id="262"  edges="155to17 17to9 9to1 1to145"/>
	<route id="263"  edges="167to47 47to48 48to168"/>
	<route id="264"  edges="150to6 6to53 53to14 14to63 63to62 62to13 13to52 52to5 5to149"/>
	<route id="265"  edges="165to45 45to46 46to143 143to38 38to136 136to137 137to39 39to144 144to47 47to48 48to168"/>
	<route id="266"  edges="153to9 9to55 55to10 10to49 49to2 2to146"/>
	<route id="267"  edges="164to44 44to43 43to42 42to41 41to161"/>
	<route id="268"  edges="165to45 45to44 44to43 43to163"/>
	<route id="269"  edges="145to1 1to9 9to153"/>
	<route id="270"  edges="166to46 46to143 143to38 38to136 136to137 137to39 39to144 144to47 47to48 48to168"/>
	<route id="271"  edges="147to3 3to4 4to148"/>
	<route id="272"  edges="150to6 6to53 53to14 14to63 63to62 62to13 13to61 61to60 60to12 12to51 51to4 4to148"/>
	<route id="273"  edges="164to44 44to45 45to46 46to47 47to144 144to39 39to126 126to120 120to31 31to102 102to96 96to23 23to90 90to24 24to156"/>
	<route id="274"  edges="164to44 44to45 45to46 46to166"/>
	<route id="275"  edges="163to43 43to42 42to139 139to34 34to127 127to33 33to41 41to161"/>
	<route id="276"  edges="162to42 42to43 43to163"/>
	<route id="277"  edges="161to41 41to42 42to162"/>
	<route id="278"  edges="145to1 1to9 9to17 17to155"/>
	<route id="279"  edges="159to33 33to127 127to34 34to128 128to129 129to35 35to140 140to43 43to42 42to41 41to161"/>
	<route id="280"  edges="147to3 3to2 2to1 1to9 9to55 55to10 10to56 56to57 57to11 11to58 58to59 59to12 12to51 51to4 4to148"/>
	<route id="281"  edges="148to4 4to5 5to149"/>